          12
 MC_STEP:            1
 C  -4.256102416360856E-002  -1.39428235845345       5.000000000000000E-004
 C    1.18640023020001      -0.734222334460929       1.500000000000000E-003
 C    1.22886150999103       0.659789874853792       5.000000000000000E-004
 C   4.371567253553872E-002   1.39333424567393      -5.000000000000000E-004
 C   -1.18524558182808       0.733274221681415      -5.000000000000000E-004
 C   -1.22818002292662      -0.659857011823726      -5.000000000000000E-004
 H  -7.575144519307435E-002  -2.47797207232541       5.000000000000000E-004
 H    2.10818758675489       -1.30500519097956       1.500000000000000E-003
 H    2.18431244888290        1.17181575639754       5.000000000000000E-004
 H   7.690609356500451E-002   2.47702395954589      -5.000000000000000E-004
 H   -2.10750609969048        1.30493805400963      -1.500000000000000E-003
 H   -2.18403877632055       -1.17323703048457      -5.000000000000000E-004
