12

 C1 -0.288195102213762       6.951421677829504E-002  1.325578942259268E-002
 C2   1.10673076388520       7.288660548028361E-002  2.727203294608444E-002
 C3   1.80001620656270        1.28267439445442       5.630306152794898E-002
 C4   1.10414765562635        2.48928857272106       0.106384840886012     
 C5 -0.287780154436037        2.46579981563702       0.195884840135057     
 C6 -0.971966411161326        1.28190270648954      -7.417959858371906E-002
 H1 -0.900767178545303      -0.819071802983574      -8.996890133802550E-002
 H2   1.59109278034728      -0.895502690920396       8.295513294406381E-002
 H3   2.86530395916990        1.25640736821371       0.255122194102186     
 H4   1.60139813078675        3.43979878647584       0.263729362559312     
 H5 -0.902545014536371        3.33208449320642       0.417199151001515     
 H6  -2.05088242807958        1.28802665275773      -0.188755886354588     
12

 C1 -0.286343526392071       6.965696293182504E-002  5.244124023627095E-002
 C2   1.10724934712774       8.074368899286848E-002  0.114101497939620     
 C3   1.77820854559821        1.28096973893806      -0.119019035306248     
 C4   1.09145422448366        2.49161442989760      -4.575966947523381E-002
 C5 -0.291206383496837        2.47208151442790       0.138341140822448     
 C6 -0.995235402590445        1.27009161735751       9.120911758115406E-002
 H1 -0.841733454998022      -0.852747295770757       0.179710288831822     
 H2   1.59705146119769      -0.886146766218894       8.761118512525923E-002
 H3   2.85815138972410        1.18931608039592      -0.138514170523321     
 H4   1.60506063656544        3.44572879797769      -8.891985907953294E-003
 H5 -0.833593977174582        3.41003633116166       0.196834388213905     
 H6  -2.07088265560142        1.25789823737876       0.232840006071736     
12

 C1 -0.287335478093656       6.847893012640428E-002  8.234081545080882E-002
 C2   1.10539553987786       6.424413581952515E-002  2.915516602183962E-003
 C3   1.77517856871085        1.28009927570017      -0.131847138139879     
 C4   1.09145422448366        2.49161442989760      -4.575966947523381E-002
 C5 -0.297641911418245        2.47671026289657       8.157764252878152E-002
 C6 -0.991938908064956        1.27012453826930       0.150574523422489     
 H1 -0.852477146980471      -0.825106909078215       0.322349652914773     
 H2   1.70442418129690      -0.819299353528819      -0.186822695653056     
 H3   2.83939685504534        1.21198599828845      -0.326415944662156     
 H4   1.60972315365851        3.43289664110281      -0.190224599200678     
 H5 -0.836773169092287        3.41693507059312       2.981087721753183E-002
 H6  -2.07196625491981        1.21131115346110       0.236055023029500     
12

 C1 -0.282210690747641       6.972301504190717E-002  0.130673755172601     
 C2   1.11272550251633       8.225524158861200E-002  0.135359907113097     
 C3   1.79635310940470        1.28926447828743      -9.056150248310552E-003
 C4   1.09181348488874        2.49145894062907      -4.085854327136021E-002
 C5 -0.299583102061614        2.47626116390396       5.818470690517436E-002
 C6 -0.990138593090489        1.27071574610453       0.169770366524444     
 H1 -0.845782657327411      -0.853699501229829       0.202524259191623     
 H2   1.71238015521071      -0.817966328159964       6.119507136599700E-002
 H3   2.87838431724692        1.28252388879537      -7.401790598833946E-002
 H4   1.60953947300888        3.43408269466392      -0.178354941603366     
 H5 -0.896607185659934        3.37891392009364       0.136576322188744     
 H6  -2.07331966415698        1.33042011662522       0.189242280245760     
12

 C1 -0.305898085624863       7.043619056091116E-002 -2.053968703867043E-002
 C2   1.08193445046618       9.018785088926012E-002 -0.160385043348380     
 C3   1.78787038050239        1.29284859556419      -0.178704320131366     
 C4   1.10574053362586        2.48664801522466       4.977066234709676E-002
 C5 -0.279306330965110        2.46876257016984       0.215149904520688     
 C6 -0.990138593090489        1.27071574610453       0.169770366524444     
 H1 -0.863043873816015      -0.849958481414250      -0.154506916242671     
 H2   1.64850337080600      -0.833983339107470      -0.140579233973503     
 H3   2.85433690833075        1.35957189639030      -0.361061513980700     
 H4   1.68559064434545        3.39554351338806       0.164521795312283     
 H5 -0.871967786089109        3.36931983666844       0.338088951885147     
 H6  -2.06894812241996        1.37974938088516       0.130954571872570     
12

 C1 -0.307206370501781       7.189757962511842E-002 -3.397600293766037E-002
 C2   1.08244748129205       8.925425604678801E-002 -0.154752316750328     
 C3   1.78341948468782        1.29378639695092      -0.207804856597559     
 C4   1.10079996755067        2.49864382480704      -4.966512925694211E-002
 C5 -0.280761939938713        2.47274362186741       0.141752934838320     
 C6 -0.989598591742409        1.27278253270829       0.159130666674540     
 H1 -0.862332170166319      -0.858773086206412      -6.821718147322134E-002
 H2   1.49929109863309      -0.910602806608697      -0.109894174345840     
 H3   2.85482830303795        1.23227518011529      -0.360633238009476     
 H4   1.56792875874051        3.47704033169774      -5.366109542242397E-002
 H5 -0.869332518275261        3.35544402272329       0.369326388135181     
 H6  -2.07455823720996        1.26642026325708       0.152268507076103     
12

 C1 -0.300594239623640       6.773903428246648E-002  2.415967103825153E-002
 C2   1.08518806372724       8.959430391837012E-002 -0.134445987463230     
 C3   1.78037427155848        1.29657703988610      -0.205035020018393     
 C4   1.09654339039735        2.50404051423129      -7.439703131431313E-002
 C5 -0.287210101986383        2.47520249930368       0.100015242367551     
 C6 -0.989598591742409        1.27278253270829       0.159130666674540     
 H1 -0.836836103982356      -0.874516779340248       1.501392867981460E-002
 H2   1.47925494386806      -0.909776617523934      -0.280918016709921     
 H3   2.84662652598247        1.35336668017625      -0.391952292338207     
 H4   1.70164455518354        3.39868703895337      -0.168975972823982     
 H5 -0.757486300444592        3.45064144903079       0.168747712997954     
 H6  -2.07212302288105        1.31107151773061       0.221579122331384     
12

 C1 -0.301248769733626       6.702152072627025E-002  2.611513885666139E-002
 C2   1.09273588038314       0.102425004290737      -1.362638338845105E-002
 C3   1.77809842223672        1.29686451554165      -0.234231098176382     
 C4   1.08426391508752        2.50299403930852      -0.153582176379855     
 C5 -0.287210101986383        2.47520249930368       0.100015242367551     
 C6 -0.995223913136848        1.27463185514680       9.787711025675055E-002
 H1 -0.758371796192684      -0.915402505330425      -1.085203181503151E-002
 H2   1.61512168707612      -0.840686502367015      -0.128250791676859     
 H3   2.81435188993904        1.28512380081263      -0.552190067687525     
 H4   1.57866909248599        3.43317377068406      -0.410124936752671     
 H5 -0.856258717118831        3.39603286478564       2.504783863627699E-002
 H6  -2.07938019916595        1.31417035121272       0.114212801011172     
12

 C1 -0.304273547221293       6.453146355673144E-002  4.026952295492636E-002
 C2   1.08381356119176       9.844544177433032E-002 -9.422962774481516E-002
 C3   1.78722031247543        1.29887508144845      -0.190466951275896     
 C4   1.08881777301443        2.50342130209478      -0.127528130178825     
 C5 -0.285357069577743        2.47403995722140       0.110810365579210     
 C6 -0.974643425331271        1.27014448297699       0.245636204593345     
 H1 -0.893282810859613      -0.844096663975969       9.456513239685106E-002
 H2   1.67647240986818      -0.809398760482128      -0.101936346559276     
 H3   2.85049490301232        1.25370811948932      -0.396535121224553     
 H4   1.57143091056176        3.47099593671541      -0.207333430162452     
 H5 -0.767592497796012        3.44446240175163       5.518419437259611E-002
 H6  -2.04058637214921        1.27147415747962       0.448093276820558     
12

 C1 -0.304021795425994       4.948432385449151E-002  1.022674021726125E-002
 C2   1.03976532491224       0.121147644464940      -0.357368885018082     
 C3   1.77802740915595        1.29952620527639      -0.250284514598947     
 C4   1.09309372264897        2.50423592799426      -0.101290121828589     
 C5 -0.238110060471771        2.46566141934489       0.313961001092809     
 C6 -0.936784088837551        1.25981743897471       0.292679622093043     
 H1 -0.886367245370972      -0.864830536975570      -9.448426712027086E-003
 H2   1.53844719496396      -0.824169541281856      -0.539513911888116     
 H3   2.83370373511002        1.34701172056552      -0.491841175980626     
 H4   1.61827370828405        3.44528484164909       1.744456054099333E-002
 H5 -0.705543040184991        3.38518315559724       0.650637679875124     
 H6  -1.96491372974572        1.21720311397597       0.636712267042535     
