         100
 MC_STEP:            0
 C    35.3216621555828        23.4086639841907       -21.2699226066799     
 C   -5.99142900112297        20.1953876924176        36.9060179722412     
 C   -16.6599815199305       -38.8664889259835        31.1501324253453     
 C    11.5378836496356        46.0360697458793        45.5165098569955     
 C   -28.7525883928652       -23.5915666063768        9.78776623940386     
 C   -12.2050779845648        28.5047573713517        19.4255817882403     
 C    17.9234112926962       -26.6632836708103       -10.5129613548462     
 C    19.0063197652676        20.5314333069155        11.5588069124669     
 C    49.2215132527060       -38.7258552817626        47.8921608350389     
 C   -29.7848138599861       -13.7902266407039        32.2796600268712     
 C    39.7430897164145        23.4261326015911       -27.8723882028529     
 C    20.5270642586987        13.3060753126759       -25.5058620410572     
 C   -25.3506748394152        7.38944320720153       -13.0642782242618     
 C   -49.6828930288391       -40.5388951243223       -48.6275899497754     
 C   -3.48812362822825       -44.6768877619336       -31.0272599538678     
 C   -29.0488829310840        21.2378556247228       -14.6033523289091     
 C   -15.2631179159653        34.3583439798635       -21.8452846341980     
 C   -34.9610886524397       -40.6902011835833       -43.1409789961424     
 C    16.0739009455213        8.17911616040070        27.9235405069343     
 C    15.7066041415816       -19.9077468249779        44.0223165790027     
 C    24.3683987296853       -46.0668562915526       -1.97886719738393     
 C   -20.5224251879346       -46.0612875993630        13.1966332348601     
 C   -45.5394548875235       -28.6845698788702       -39.6774734672153     
 C    41.8671776054232        38.6233121999669        36.7703574424401     
 C    7.16681039962990        47.1414330776502        37.7864845037141     
 C   -44.8239982019033        43.9994844968992       -24.1118430528321     
 C   -25.0838484307567       -28.2296816386211        21.6487011749392     
 C    19.5383712510318       -31.5749985579025       -19.9205630294562     
 C   -23.2957844500372        21.9110059625335        7.76706883386402     
 C    22.2732001129829       -12.3078826425716       -18.2168222445797     
 C    5.70994605032207        45.5402492453055        21.6105730134133     
 C    15.1740309453488        10.3275291034673        10.1523709075928     
 C    27.2484891489200        15.6602438056811       -10.9144941541333     
 C    14.1249279829452        32.9894696631222       -9.56581664220991     
 C   -11.9153830840567        43.7967738673035       -30.3038552695042     
 C    8.60791154252390        30.4048431536061        21.3218658701047     
 C    24.8340179740135        43.3209357574649        31.7868287922255     
 C    9.54212887820636       -6.99648996522491        14.0606576429958     
 C   -15.0324191568435        29.8310659168239       0.805078666718073     
 C   -10.7721199528879        5.12046567015884        31.9018315142503     
 C    9.53548031991467       -2.08198803120915        45.3959396299414     
 C   -30.7155266377101       -38.7646172071977        24.7606937189688     
 C   -5.27344717720717       -32.1029371123190        21.7277493452094     
 C    18.1779712281942       -24.6056829066712        8.82027884682309     
 C    16.1028026708822       -24.8105707541657        31.2088060987740     
 C    30.0379243438147       -4.66782132670974       -16.6768221199535     
 C   -47.1744273109735        27.4477847315480       -16.0415284196884     
 C    33.1599081992367        12.5577925960420       -24.0957548942516     
 C   -1.69165405615747        48.1852137378287        8.50381424584847     
 C   -4.84962118503355       -11.0547895432311        19.0452061304161     
 C   -9.15810203817756       -28.5329571033505       -22.9039725685436     
 C   -29.7039245907826       -41.3239848890719       -35.1337544154512     
 C   0.870433315926300       -39.1882114903156        14.0400424007576     
 C   -8.77504396589083        25.8733556878820        14.3777881635756     
 C   -42.5206032666351        30.1175505423939       -14.9263967469817     
 C   -26.1044222907979        5.41217867734350        23.5986435566874     
 C    9.37926903101138       -14.3172525275211       -38.9934816447991     
 C   -5.10121631780299        49.0432560352590        5.07799322934570     
 C    37.4601951612403        42.8162784766774        6.13696680903201     
 C   -38.5113461498388       -13.9569416780449       4.505716111802283E-003
 C   -26.9413130405260        1.77684310845436        33.5220807737736     
 C    26.6481173196839       -29.9141872001261        16.6199439684805     
 C    15.2746952439598       -11.6663299184607        17.2378770045562     
 C   -15.6159873620563        8.84561807740338        17.6455687984983     
 C    44.5366709770764        47.9387377600189        43.1245857060945     
 C    19.5440777358133        49.5163318820168        11.8435907056605     
 C   -36.5158001215948        35.0428515225885        34.2441086251456     
 C   -41.4567450440925        35.9107462897041       -43.6136385613131     
 C    40.1415076829099       -47.5698905758820        2.29038498946253     
 C   -9.90469810898183        44.3397562586031       -40.0367639335403     
 C    12.4151964939861       -6.66191761046155        35.7942306448922     
 C   -35.8191733950349       -44.3612271134124       -41.1784010940501     
 C    12.0803576256935       -18.3011139818277        14.9887865360738     
 C   -2.28701581441025       -21.9213478967805       -49.7426775815131     
 C    40.2693027277799       -48.6637666892957       -13.4419484458602     
 C   -46.4715937557239        31.1848602311456       -49.3188986616466     
 C   -35.1148384371406       -39.5715646526361        29.7238884544358     
 C    24.5295539133803       -7.06771915555291        17.0888286067331     
 C   -17.4055054415031       -18.7554684293771        41.9663793802040     
 C    47.7492404505109        15.7416304355954       -48.2765081414615     
 C   -44.9120714714969       -34.0734453853711       -24.1509765732938     
 C   -28.7601116788745        44.9091108759770       -3.07758219739729     
 C   -30.2984532311734       -11.2326198525438       -26.6234126758129     
 C   -22.5305281511794       -47.2210089843601       -34.9075650630985     
 C   -40.9968286477053       -17.9276573804328       -49.0136897317250     
 C   0.499551460523862       -41.8599199145244        37.9569833892867     
 C    8.06978142636606        8.45123534670113       -46.8090056482681     
 C    48.8832102449359       -24.4743303624395       -39.4450695103413     
 C    29.3792147643062       -21.0070990489111       -8.96367664128941     
 C   -31.6989346534696       -36.8625170700324       -42.7413904108362     
 C    14.8366643435774       -25.0457595934604       -6.07823239146535     
 C   -4.62156892134982        5.14373638631023        44.2895693015243     
 C   -15.6868943927496       -48.9909586995983        11.0107822458223     
 C    48.6154695985784        16.4301756668921        30.5700760631673     
 C    8.26523154781633       -9.58755223459445       -8.77859820016132     
 C    20.8487989260781        18.9200783334895       -39.5518391999678     
 C   -35.1354988252302        27.7224102211912       -4.25668577129507     
 C   -34.4005101857439       -1.10968918308534        13.3606159626869     
 C   0.434888125712601       -41.4213961534834       -27.6940438343639     
 C   -41.2714220662096        13.5243523507499       -30.2144489885340     
          46
 MC_STEP:         4000
 C   -48.3592739456803       -40.9105608137428        48.6651471615825     
 C    10.3663041422775        25.6577186723560        28.7458691341177     
 C   -33.1930392984031       -12.5408393447537       -18.7168499385456     
 C    16.0942847965279        9.24284090296597        39.4498927717648     
 C   -45.0457047623118        35.4978782346742       -2.73323609985349     
 C   -39.1610239879950        34.5493788681307        17.0735462467142     
 C   -25.0115952310443       -36.7545889733979        31.3615930017490     
 C    5.27391727307436       -27.0531921330388        19.8490733534997     
 C   -19.2300164449385       -23.3222385367616        41.9283986320022     
 C   -48.0413253147739       -14.8750249292818        30.6264996053389     
 C    5.38146467277577        5.61825492490526        36.8754975529677     
 C   -29.7547825568413       -29.3997512272704       -42.3903938419300     
 C   -37.4012302978128       -25.2494502546666        43.7354633365325     
 C    31.4132712151057       -42.4431917161938        45.2263828313845     
 C    31.2086597658470       -8.44821405829945        11.8818312531519     
 C   -11.7291543559536       -8.80659248973748        23.5170279023296     
 C    34.1870130119263       -45.0337692809061       -37.5948956416669     
 C    43.8173913312890        49.6830694723527       -36.0327602467061     
 C   -7.24431246987390       -8.69720461740677       -22.6927263481456     
 C   -3.01426571035657       -36.8982190505408        14.3002801017557     
 C    35.6670574383279       -30.2217889841202        28.5345511965230     
 C    34.7720989711379       -9.43616887301690        26.6602044861828     
 C   -4.46893551306854        48.0955631180965        2.93074303196853     
 C   0.771082141265870        1.86012321685355       -26.1227174637949     
 C   -34.9722180837073       -14.7246030845967       -32.9734754669629     
 C   -39.5702763344443        13.3190442523850       -6.75549004673565     
 C    20.7106435559493        39.8733047115135        43.7015781702973     
 C    4.79614429350127        27.8447035274683       -32.3191369830722     
 C   -3.12015678635555        37.6299923271991       -30.3629331588971     
 C    27.3300171172886       -33.4491145632165       -3.33885179738910     
 C   -28.4248600493052        18.2908404808484       -32.4614162355846     
 C    45.6711469149212        45.0670922378490        35.5616095703150     
 C    41.5193788452513        46.8424936480145       -45.2636713007217     
 C   -21.2475549164747        24.5034275764581        26.0185904104302     
 C   -10.8389265168182        34.8162832258152       -37.6363503100801     
 C   -15.7041296715398        22.3450970023636       -25.1786622226472     
 C    5.54931472671241       -9.04249609916512        3.05096087916223     
 C   -23.0706386179519       -25.4328133843264        7.48296929137552     
 C   -35.8210992723113       -44.5414945772854        8.74945194515346     
 C    8.32240037788520        29.7394293086052       -31.9969511201201     
 C   -3.45930507012792        43.0014712330053        8.28006253766806     
 C    42.1812259328402        41.3117710691006        16.2640089196697     
 C   -2.37068209133275        38.6294897712526       -15.2225415868788     
 C    24.8584075196035        48.0167431988756        5.66520775701722     
 C   -41.4410811330437        20.6988120978340        34.6910002700550     
 C   -12.0280583248474        14.8364210931400        10.7746518768790     
