         100
 MC_STEP:            0
 C4  -43.3116529934633        28.2850678887059       -19.2880078343671     
 C4  -4.23543456496642       -49.8209375571369       -49.8153434784669     
 C4  -49.5803035657989       -49.6702988771812        12.6902222306208     
 C4 -0.823265719525090       -45.9712786303200        33.8633760595770     
 C4   40.8906979552928       -43.2600201353404       -24.2476199996841     
 C4  -48.2494993540280        30.7747154731625      -0.436820858326803     
 C4  -4.27761937783544       -41.5600014710910       -27.2103924310081     
 C4  -10.0588588861003       -27.6265708385093       -13.0490714164702     
 C4   4.68948184917309        12.0108743706649        48.3096034709775     
 C4  -20.4699876880896       -13.6366344915090        26.9602707218148     
 C4  -40.5028105424877        26.5143824231223        2.17324919867299     
 C4  -38.5733381050237       -31.6875116564642       -43.0239193285522     
 C4  -17.5197421414575        26.8208428011667        46.9681305621481     
 C4  -43.5125950895210       -20.7528226509629       -31.0214232345244     
 C4   46.3199946971884       -29.7062718328934        3.96140740260645     
 C4   11.5607537857890       -8.22161655252214        41.5450428515210     
 C4  -35.7406877042798       -32.6445823490176        6.46237923710251     
 C4   45.5408464105631       -45.1306477112964        12.8944287230661     
 C4  -11.2551622558350      -0.605686190985399        47.7780820254570     
 C4  -17.8456397414119        10.8094771615062        43.9538702337173     
 C4   30.0422694053631        41.5157623348121        23.6188122344545     
 C4   33.2296727702312        25.7061283860877        27.3815069147640     
 C4  -43.7662226719560        43.8420594124836      -0.111988750654612     
 C4  -41.4456196030169       -14.3631060260094       -32.4403940747019     
 C4   2.89913352569470        3.00148180147461       -2.38146160579319     
 C4  -26.6725424210951        19.0001582811278       -8.32457775470226     
 C4   38.0528561217579        40.4870012937755       -6.05167389633371     
 C4   35.1967361607847        13.5548057481989       -44.1537875500180     
 C4   39.4882727051868        43.5315924835505       -42.9431639695453     
 C4  -4.19499047522541        27.1977937147108        47.9849454810829     
 C4   49.8241423492359        40.5746720138369        11.5680800644735     
 C4   5.36475261745302       -37.3717367245468       -39.0282488155412     
 C4   1.48932702454732        33.9082841084929        31.3990366075741     
 C4  -12.3612105206772       -8.76682935729238       -36.7057872407439     
 C4  -34.5356390089730        6.92676077940569       -24.8368208137526     
 C4  -31.9097447348208        39.6184032404282       -12.9014462521368     
 C4   16.3948202437295       -1.84221117578675        41.1785423679632     
 C4 -6.712278887089917E-002   39.7558124007080        38.7835449155818     
 C4  -32.8256581851186       -15.0155447872760       -14.9297399614477     
 C4  -44.5203757735914        14.2355379496036       -39.9849496956171     
 C4   47.9784406375528       -23.5595637899892       -25.5487793269194     
 C4  -42.5380916758111       -7.67190296986944       -12.0729998462688     
 C4   32.8788999247800       -5.42982784985745        2.39263333315117     
 C4   20.8317743687404       -47.9078049087556       -35.6463239790994     
 C4  -40.2258182311245       -24.8121198908358       -21.3453991459615     
 C4  -31.7191779420182        4.81495872953632        47.8851129772966     
 C4   23.8026371370959       -37.3067127215087       -35.8506187703906     
 C4   10.7340106977325       -14.0974404042325        29.3652043259631     
 C4  -2.18843669856212       -39.8494177672958       -39.1902582375811     
 C4   5.80184487224911        16.5332225478726       -5.81476499907506     
 C4  -9.29495286779680       -9.42582228001855        14.7995366124746     
 C4   5.09252304117176        40.9833716991748        32.3070816358645     
 C4   31.1416602689285       -15.5086469934703        19.7971142506025     
 C4  -34.6579537223530        45.3665818646394        48.7321013396694     
 C4   36.0564755912569       -19.1483539527573       -37.5078212321865     
 C4  -11.5086578685500       -35.9328512090975        46.5380142096244     
 C4  -43.9615718755376       -31.4845102863252        38.3374690930880     
 C4   24.8212605593812        1.98153038492648       -27.8340558712115     
 C4  -47.4631521683760       -3.93595885789489        36.0056757842101     
 C4   37.7468418810030        16.1931196325617        26.2205535046563     
 C4 -0.861612244544829       -47.5443276814129       -47.5383834900083     
 C4   28.2641699217594       -33.3630373265839       -10.9620659691384     
 C4  0.748274257972742       -48.6321291476813        7.76749462029305     
 C4  -27.7732298111281       -18.1730132924008        10.6802227599961     
 C4  -11.6620614372764        36.6520279585891       -4.05353845398126     
 C4   3.10556529776860       -13.2144527460599        45.8767999789365     
 C4   40.6034341872746       -16.4361252221412        39.1494873014611     
 C4   27.1789886748433        21.4508269401673        2.98306187297554     
 C4  -19.7412668561980       -9.96562002657966       -5.57989137090078     
 C4  -37.8267057702497       -11.5478175697793       -43.3661649917693     
 C4   8.13761235987217       -43.1519425913880        23.2621767827514     
 C4  -19.8417798625929        31.2853644763538        44.7119459309448     
 C4  -28.1774279734778        44.0740606641271        17.2927669013882     
 C4   33.8178939437340       -44.6168226793288       -23.8627439598448     
 C4   10.3677291860007      -0.972014073450211       -31.2152454930054     
 C4   49.5566497794591       -5.89541982609073       -2.19693247658552     
 C4  -38.3759711054837       -2.46651201222193        33.9339189764647     
 C4  -26.8124996943520       -18.4077370789216        18.4657019831361     
 C4  -13.7746381579015       -9.29747665140540        31.0993450500609     
 C4   37.4307552055816       -37.5797475940616       -32.9722527165284     
 C4  -1.51270226043532       0.700784213463940        45.7255502973196     
 C4   24.6930436223079       -29.5493351154826       -19.8849242975098     
 C4  -44.3970880011111       -23.6444192190211        43.4052089169081     
 C4  -21.7092217802744       0.381078102855142        37.5076134701447     
 C4   21.3546685070941        7.23483323224579       -41.7692353199226     
 C4  -33.5583251430555        45.1430898023118       -11.7405324967040     
 C4   13.0971219005047        27.8559392306469       -12.6425972355596     
 C4   44.0494065040835       -12.9925741090266        43.8147589574150     
 C4   26.9566541927154        31.8845943391243        47.4439245247682     
 C4   36.7732929171722       -44.4869569919923       -4.65018986617628     
 C4  0.843563679152221       -1.17052585836858       -43.9855366672189     
 C4  -46.5560143337728        48.9130411041130        18.0038081370145     
 C4   43.5426150568644       -23.2503771565885       -47.8939450160032     
 C4  0.704202263188963        25.8950675909591       -4.96320721749119     
 C4   16.0478978306240        38.7385454045201       -24.2510912020738     
 C4  0.292166715152514        44.6030603693177        40.9500758129550     
 C4  -28.2413742280565       -11.9851982888569       -9.35810878076351     
 C4  -33.6344051683995       -6.36332182404381       -46.7849744353924     
 C4  -34.1332930760224        23.9070035939516        35.0732377822766     
 C4  -36.0460768083000        8.45447150035419       -47.2968700551465     
          49
 MC_STEP:         4000
 C4   49.2790729828244       -13.2719407701036       -3.38069443477288     
 C4  -38.8889152265279        27.3494243213136       -31.5030879621236     
 C4  -39.0239973705589        20.3204881167138       -48.1588445784095     
 C4   31.9898817480406        29.4231526866427        12.6785583729164     
 C4   36.9141022660941        2.67652646622481       -26.6950217452883     
 C4   21.6063919786198        30.1857845372362       -20.7854437889387     
 C4  -33.9154386448015       -31.8647094580888        35.9329253531917     
 C4  -28.1365921972946        29.1793116569243        29.6978930684593     
 C4  -37.3466260811348       -18.1392473068583       -45.0793210366171     
 C4  -47.3097580312236        34.1852416066158       -13.5136373802062     
 C4   14.6466495230605       -40.6845622888052        29.3840443098412     
 C4 -1.406364810993033E-002  -38.0542695823559       -6.30988026275199     
 C4  -31.0376916245355       -14.4425999762632       -10.9137650739373     
 C4   20.0869697574922        46.6771951044650        29.7632316337742     
 C4  -26.3588104253477       -12.3654008955322        46.5482381279939     
 C4  -22.1942939386726       -25.0189196371589       -47.6227086182423     
 C4   23.8299703215851        26.5170413213278        6.82772248545345     
 C4  8.859757980391247E-002   25.9708900870865       -1.21453062506222     
 C4  -31.5807700947004       -15.8216041927398        46.0154182028469     
 C4  -25.1224735142759        7.39117691808402       -30.5112331046052     
 C4  -9.31250085657733       -27.0379283939423        41.5712276491037     
 C4   24.1242768334603        10.2140237985121        14.5011640913022     
 C4   45.2596982407118       -20.8411919419247        45.2176433959396     
 C4  -16.4042490852580        11.4347439148656        40.4415922202680     
 C4   11.3167459985596        29.7688031476320        43.3288632767792     
 C4  -33.5861816318606        20.6977285967962       -29.3083103723304     
 C4   30.2153928702346       -9.62278803661423        44.3950005236680     
 C4  -26.6283171965018        11.1658193499174       -28.1916904117421     
 C4  -42.6119020132757       -1.32531861331773       -17.1634059144334     
 C4  -39.1755606336152        49.1381745888635        23.7527805698025     
 C4   31.6000369661579       -20.0076802937281        44.1984493536403     
 C4   3.64620674858062       -40.6394104776208        38.5343225094051     
 C4   48.7525482044453       -5.65787544847209        21.9118388417706     
 C4   30.2597990872436       -46.0283567527025       -13.1470385838079     
 C4   43.5526084214963       -47.4727569197466       -32.3174312267925     
 C4   35.5988579274655       -7.61073626281729        26.2064796608520     
 C4  -45.9341792218440        5.57526361697356        48.5126950871373     
 C4   38.9849718565447        14.2297884276631       -32.6773678482452     
 C4   40.2662743371527       -36.2603709916411       -28.5212573532852     
 C4   24.8721092717111        45.0651470019766       -43.6131116577253     
 C4   13.0094265277537        25.1620493788197       -31.4367264416604     
 C4   15.6078153730351       -29.0175170602708       -4.73057335470919     
 C4   17.0381366343055       -36.5916558768388        4.09296942027484     
 C4  -15.7731671677682        11.1786935823152        48.5354538594549     
 C4   11.5813776074019       -15.7317321714959        46.3196722368231     
 C4  -20.1411245410091       -19.0132149159802        11.8440531322950     
 C4   44.4014302810287       -36.6465732668988       -9.05511252374143     
 C4  -29.8971629146333        15.4435505058398        16.1962085516548     
 C4   48.1088179910113       -43.1753498328165        42.3836694832763     
