288
 generated by VMD
 O       -10.021001        1.380000       -3.919001
 O        10.021000       -1.380002        3.919000
 O        -0.024002       -1.380002        2.652000
 O         0.023999        1.380000       -2.652000
 O        10.021000       -8.489003        3.919000
 O       -10.021001        8.489001       -3.919001
 O         0.023999        8.489001       -2.652000
 O        -0.024002       -8.489003        2.652000
 O         7.785000        1.467000       -2.618001
 O        -7.785001       -1.467000        2.618001
 O         2.259999       -1.467000        3.953001
 O        -2.260000        1.467000       -3.953000
 O        -7.785001       -8.402000        2.618001
 O         7.785000        8.401999       -2.618001
 O        -2.260000        8.401999       -3.953000
 O         2.259999       -8.402000        3.953001
 O         8.025999        2.695999       -4.927001
 O        -8.026001       -2.696002        4.927001
 O         2.019000       -2.696002        1.644000
 O        -2.019002        2.695999       -1.644000
 O        -8.026001       -7.173001        4.927001
 O         8.025999        7.172999       -4.927001
 O        -2.019002        7.172999       -1.644000
 O         2.019000       -7.173001        1.644000
 O         7.980000        0.067000       -4.828000
 O        -7.980000       -0.067002        4.828000
 O         2.065000       -0.067002        1.743001
 O        -2.065001        0.067000       -1.743001
 O        -7.980000       -9.802003        4.828000
 O         7.980000        9.802001       -4.828000
 O        -2.065001        9.802001       -1.743001
 O         2.065000       -9.802003        1.743001
 O         6.610001        0.760000       -0.365000
 O        -6.610001       -0.759999        0.365000
 O         3.434999       -0.759999        6.206000
 O        -3.435000        0.760000       -6.206000
 O        -6.610001       -9.109001        0.365000
 O         6.610001        9.109000       -0.365000
 O        -3.435000        9.109000       -6.206000
 O         3.434999       -9.109001        6.206000
 O         6.623999       -0.877999       -2.425001
 O        -6.624001        0.877999        2.425000
 O         3.421000        0.877999        4.145999
 O        -3.421001       -0.877999       -4.146002
 O        -6.624001        8.991000        2.425000
 O         6.623999       -8.991001       -2.425001
 O        -3.421001       -8.991001       -4.146002
 O         3.421000        8.991000        4.145999
 O         5.165000        1.309000       -2.489000
 O        -5.165000       -1.309000        2.489000
 O         4.880000       -1.309000        4.082000
 O        -4.880000        1.309000       -4.081999
 O        -5.165000       -8.560001        2.489000
 O         5.165000        8.560000       -2.489000
 O        -4.880000        8.560000       -4.081999
 O         4.880000       -8.560001        4.082000
 O         5.846000        2.558000        1.393000
 O        -5.846001       -2.558001       -1.393003
 O         4.198999       -2.558001       -5.178000
 O        -4.198999        2.558000        5.177999
 O        -5.846001       -7.311002       -1.393003
 O         5.846000        7.311000        1.393000
 O        -4.198999        7.311000        5.177999
 O         4.198999       -7.311002       -5.178000
 O         4.085999        0.898000        0.361000
 O        -4.086002       -0.898000       -0.361001
 O         5.959000       -0.898000       -6.210000
 O        -5.959002        0.898000        6.210001
 O        -4.086002       -8.971001       -0.361001
 O         4.085999        8.971000        0.361000
 O        -5.959002        8.971000        6.210001
 O         5.959000       -8.971001       -6.210000
 O         5.898000        0.020000        2.055000
 O        -5.897999       -0.020000       -2.055002
 O         4.146999       -0.020000       -4.516000
 O        -4.147001        0.020000        4.515999
 O        -5.897999       -9.849003       -2.055002
 O         5.898000        9.849000        2.055000
 O        -4.147001        9.849000        4.515999
 O         4.146999       -9.849003       -4.516000
 O         2.160000        2.497000        1.160000
 O        -2.160000       -2.497001       -1.160001
 O         7.885000       -2.497001       -5.411000
 O        -7.885000        2.497000        5.410999
 O        -2.160000       -7.372000       -1.160001
 O         2.160000        7.371999        1.160000
 O        -7.885000        7.371999        5.410999
 O         7.885000       -7.372000       -5.411000
 O         1.700000        0.730000       -0.732002
 O        -1.700002       -0.730001        0.732000
 O         8.344999       -0.730001        5.838999
 O        -8.345001        0.730000       -5.839000
 O        -1.700002       -9.139002        0.732000
 O         1.700000        9.138999       -0.732002
 O        -8.345001        9.138999       -5.839000
 O         8.344999       -9.139002        5.838999
 O         2.613999        1.542000       -3.062000
 O        -2.614001       -1.542003        3.062000
 O         7.431000       -1.542003        3.509000
 O        -7.430999        1.542000       -3.509001
 O        -2.614001       -8.327002        3.062000
 O         2.613999        8.327001       -3.062000
 O        -7.430999        8.327001       -3.509001
 O         7.431000       -8.327002        3.509000
 O         1.463000       -0.811002       -2.849000
 O        -1.463000        0.810999        2.849000
 O         8.581999        0.810999        3.722001
 O        -8.582000       -0.811002       -3.722001
 O        -1.463000        9.058000        2.849000
 O         1.463000       -9.058003       -2.849000
 O        -8.582000       -9.058003       -3.722001
 O         8.581999        9.058000        3.722001
 O         4.421999        2.592000       -4.658000
 O        -4.421999       -2.592001        4.657999
 O         5.623000       -2.592001        1.913000
 O        -5.623001        2.592000       -1.913001
 O        -4.421999       -7.277001        4.657999
 O         4.421999        7.276999       -4.658000
 O        -5.623001        7.276999       -1.913001
 O         5.623000       -7.277001        1.913000
 O         9.865999       -2.866000       -3.720000
 O        -9.865999        2.866000        3.721000
 O         0.179000        2.866000        2.850000
 O        -0.179001       -2.866000       -2.850001
 O        -9.865999        7.002999        3.721000
 O         9.865999       -7.003000       -3.720000
 O        -0.179001       -7.003000       -2.850001
 O         0.179000        7.002999        2.850000
 O         7.395000       -3.334002       -2.966000
 O        -7.395000        3.334001        2.966000
 O         2.650000        3.334001        3.605000
 O        -2.650002       -3.334002       -3.605000
 O        -7.395000        6.535001        2.966000
 O         7.395000       -6.535003       -2.966000
 O        -2.650002       -6.535003       -3.605000
 O         2.650000        6.535001        3.605000
 O         8.563999       -4.934001       -4.690000
 O        -8.563999        4.934999        4.690000
 O         1.481000        4.934999        1.881000
 O        -1.481001       -4.934001       -1.881002
 O         6.463001       -2.742000       -0.577003
 O        -6.463000        2.742000        0.577000
 O         3.582000        2.742000        5.994000
 O        -3.582002       -2.742000       -5.994000
 O        -6.463000        7.126998        0.577000
 O         6.463001       -7.127001       -0.577003
 O        -3.582002       -7.127001       -5.994000
 O         3.582000        7.126998        5.994000
 O         4.842000       -2.799002       -2.642002
 O        -4.842000        2.799000        2.642000
 O         5.203000        2.799000        3.928999
 O        -5.203000       -2.799002       -3.929000
 O        -4.842000        7.070001        2.642000
 O         4.842000       -7.070001       -2.642002
 O        -5.203000       -7.070001       -3.929000
 O         5.203000        7.070001        3.928999
 O         5.912000       -4.934001        0.761000
 O        -5.912000        4.934999       -0.761001
 O         4.133000        4.934999       -5.810000
 O        -4.133000       -4.934001        5.810000
 O         3.969999       -3.330000        0.004000
 O        -3.970000        3.329999       -0.004002
 O         6.075001        3.329999       -6.567000
 O        -6.075003       -3.330000        6.566999
 O        -3.970000        6.539001       -0.004002
 O         3.969999       -6.539002        0.004000
 O        -6.075003       -6.539002        6.566999
 O         6.075001        6.539001       -6.567000
 O         1.905000       -4.934001        0.269001
 O        -1.905002        4.934999       -0.269001
 O         8.139999        4.934999       -6.302000
 O        -8.140001       -4.934001        6.302000
 O         1.625000       -2.625001       -0.953000
 O        -1.625000        2.625000        0.953000
 O         8.419998        2.625000        5.618001
 O        -8.420000       -2.625001       -5.618000
 O        -1.625000        7.243999        0.953000
 O         1.625000       -7.244001       -0.953000
 O        -8.420000       -7.244001       -5.618000
 O         8.419998        7.243999        5.618001
 O         2.365000       -3.217000       -3.409000
 O        -2.365000        3.217000        3.408999
 O         7.680000        3.217000        3.162000
 O        -7.680000       -3.217000       -3.162002
 O        -2.365000        6.652001        3.408999
 O         2.365000       -6.652000       -3.409000
 O        -7.680000       -6.652000       -3.162002
 O         7.680000        6.652001        3.162000
 O         4.250999       -4.934001       -4.057002
 O        -4.251002        4.934999        4.057000
 O         5.794001        4.934999        2.513999
 O        -5.794003       -4.934001       -2.514000
 Si        8.466000        1.403000       -4.077000
 Si       -8.466000       -1.403003        4.076999
 Si        1.579000       -1.403003        2.494000
 Si       -1.579000        1.403000       -2.494002
 Si       -8.466000       -8.466001        4.076999
 Si        8.466000        8.465999       -4.077000
 Si       -1.579000        8.465999       -2.494002
 Si        1.579000       -8.466001        2.494000
 Si        6.546999        0.663000       -1.971002
 Si       -6.547000       -0.663001        1.971000
 Si        3.497999       -0.663001        4.599999
 Si       -3.498003        0.663000       -4.600001
 Si       -6.547000       -9.206004        1.971000
 Si        6.546999        9.206000       -1.971002
 Si       -3.498003        9.206000       -4.600001
 Si        3.497999       -9.206004        4.599999
 Si        5.609000        1.058000        0.861000
 Si       -5.609000       -1.058001       -0.861000
 Si        4.436000       -1.058001       -5.710001
 Si       -4.436000        1.058000        5.710001
 Si       -5.609000       -8.811000       -0.861000
 Si        5.609000        8.811000        0.861000
 Si       -4.436000        8.811000        5.710001
 Si        4.436000       -8.811000       -5.710001
 Si        2.502999        1.015000        0.632000
 Si       -2.503002       -1.015003       -0.631999
 Si        7.542000       -1.015003       -5.939000
 Si       -7.542001        1.015000        5.939001
 Si       -2.503002       -8.854002       -0.631999
 Si        2.502999        8.853999        0.632000
 Si       -7.542001        8.853999        5.939001
 Si        7.542000       -8.854002       -5.939000
 Si        1.448000        0.711000       -2.322001
 Si       -1.447999       -0.711001        2.322000
 Si        8.597000       -0.711001        4.249000
 Si       -8.597001        0.711000       -4.249001
 Si       -1.447999       -9.158004        2.322000
 Si        1.448000        9.158000       -2.322001
 Si       -8.597001        9.158000       -4.249001
 Si        8.597000       -9.158004        4.249000
 Si        4.085999        1.356000       -3.684002
 Si       -4.086002       -1.356002        3.684000
 Si        5.959000       -1.356002        2.887000
 Si       -5.959002        1.356000       -2.887001
 Si       -4.086002       -8.513000        3.684000
 Si        4.085999        8.513000       -3.684002
 Si       -5.959002        8.513000       -2.887001
 Si        5.959000       -8.513000        2.887000
 Si        8.427999       -3.407001       -4.199001
 Si       -8.428001        3.407000        4.199000
 Si        1.617000        3.407000        2.371999
 Si       -1.617001       -3.407001       -2.371999
 Si       -8.428001        6.461999        4.199000
 Si        8.427999       -6.462000       -4.199001
 Si       -1.617001       -6.462000       -2.371999
 Si        1.617000        6.461999        2.371999
 Si        6.332001       -2.438003       -2.154000
 Si       -6.332001        2.438001        2.154000
 Si        3.712999        2.438001        4.417000
 Si       -3.712999       -2.438003       -4.417001
 Si       -6.332001        7.431001        2.154000
 Si        6.332001       -7.431002       -2.154000
 Si       -3.712999       -7.431002       -4.417001
 Si        3.712999        7.431001        4.417000
 Si        5.491000       -3.399001        0.528000
 Si       -5.491001        3.398999       -0.528001
 Si        4.554000        3.398999       -6.043000
 Si       -4.553999       -3.399001        6.043000
 Si       -5.491001        6.470000       -0.528001
 Si        5.491000       -6.470002        0.528000
 Si       -4.553999       -6.470002        6.043000
 Si        4.554000        6.470000       -6.043000
 Si        2.381001       -3.397001        0.240000
 Si       -2.381000        3.397000       -0.240001
 Si        7.664000        3.397000       -6.331000
 Si       -7.664002       -3.397001        6.331000
 Si       -2.381000        6.471999       -0.240001
 Si        2.381001       -6.472000        0.240000
 Si       -7.664002       -6.472000        6.331000
 Si        7.664000        6.471999       -6.331000
 Si        1.320001       -2.380002       -2.514000
 Si       -1.320001        2.380000        2.513999
 Si        8.725000        2.380000        4.057000
 Si       -8.725002       -2.380002       -4.057002
 Si       -1.320001        7.488999        2.513999
 Si        1.320001       -7.489002       -2.514000
 Si       -8.725002       -7.489002       -4.057002
 Si        8.725000        7.488999        4.057000
 Si        3.912000       -3.379001       -3.822001
 Si       -3.912002        3.379001        3.822000
 Si        6.133001        3.379001        2.749000
 Si       -6.133000       -3.379001       -2.749002
 Si       -3.912002        6.490001        3.822000
 Si        3.912000       -6.490000       -3.822001
 Si       -6.133000       -6.490000       -2.749002
 Si        6.133001        6.490001        2.749000
