         100
 
 C   -1.76101628376904        11.6490371756969        8.06600603345963     
 C    5.53371617624488        10.0534264288052        8.32892488620990     
 C   -8.53031836369432       -6.10933262535019       -14.6095635769484     
 C    15.1214319692429       -7.84590178969013       -6.49558425996902     
 C   -17.1009982600294       -8.07376269672896       -17.8524602898877     
 C    3.36469812827232        9.34101870002496       -14.5051929128512     
 C    16.6181320481593        1.15756629052160        2.52825002636191     
 C    15.4675581279297       -13.3948837557448       -14.6297177184923     
 C    8.97923638939029        7.16270139718654       -4.33949399985932     
 C   -9.63832180364473        7.27000170452757        11.8204198842446     
 C    6.79464096843306       -10.9877211231805        1.20225816886935     
 C   -6.80311348793721       -4.67181291081164       -1.33070150623026     
 C   -9.65225365185559        11.3737679001738        3.64908382321187     
 C   -12.0493634405843       -10.9950248152970        15.5281713512809     
 C    15.6644708767153       -2.83460812385696       -8.53970638581625     
 C   -7.54292423989502        7.93920329857888       -8.03907495769063     
 C    14.5705586920889       -1.40896010035574       -2.55737778275820     
 C   -1.81051563998883        9.31621969254390        4.14902409446152     
 C    5.08126711551467       -15.7654190854337        18.6092072300432     
 C   -11.6733135671620        5.58949838748612       -16.8522634133055     
 C    7.30401123489551        10.6689455209103        12.1481680067549     
 C   -3.11078433646740        8.65933200900181       -12.1019427979179     
 C    12.0417150098307        2.31743818562199        6.48204254999171     
 C   -18.3937826875004        1.55495133878375       -9.46359951614072     
 C   -18.2640178875470        9.92232375864904        1.88735357983369     
 C   -4.57856092213048        4.74904284330717       -14.8834281326204     
 C   -18.5775951093280        1.70715397704615       -16.1846530383295     
 C    10.1777286837966       -13.1048389160972        10.5673401571714     
 C    14.3160737010990        11.7085045917610       -7.72048313786326     
 C    9.46454365762207       -17.8105646148238        5.34461794388800     
 C   -6.52186822401793        3.02693890776326        3.57496867628059     
 C   -7.00123274786713       -8.94929448740747        6.45940595067071     
 C   -4.82910234855687        3.90378397756649       -11.0611001971331     
 C   -9.17996878589335        18.6127942763178       -9.93699511799827     
 C   -15.4269392035227        5.35314525084947       -14.1986262041594     
 C   -4.00384213520192       -3.98431616054817       -10.5320677387812     
 C    15.6003441503295        17.2152531791218        4.29449112370265     
 C    1.34304328029384        1.22908747761041       -6.44822095693141     
 C    9.11539366217833        6.69774413654283        10.8066016217611     
 C   -7.19080090646274        14.2647317093915        1.43952573466310     
 C    7.18782691318675        13.0551434818237       0.176334438493761     
 C   -1.05323855462027        15.3948914587227      -7.463633805015885E-002
 C   -15.9008616773428       -10.5967127591834        14.7896230833551     
 C    13.7120425569515       -2.99791087972593       -15.9986490009414     
 C    3.08789843639488       -3.31982981408068        11.9501232884511     
 C    15.7446961449836       -16.8240412641173       -17.6515130756743     
 C    3.96919552764620       -14.8605899854106        6.22734299425473     
 C   -6.25960147474361       -7.20153646188107        10.6550568225520     
 C    13.0277221756460       -18.2545073284224        16.3452056874090     
 C   -15.7179203894279        3.68061390499451        10.3451665319707     
 C   -14.0418041580431       -12.5867912233299        9.07164121776188     
 C    5.25645309022072       -5.24801237466037       -13.1961954312448     
 C    1.97672537138777        10.7193547162658       -1.97236257994602     
 C   -12.5998348162271        15.8077287956729       0.384521074774338     
 C   -12.4175474848546        15.5364736277863        4.93774419760174     
 C   -11.5238693804902       -7.28370757433263        18.3592933796635     
 C    17.5604744040953      -0.962635126068558       -12.4253133720453     
 C    3.30102496927651        12.6293627894197        10.0950062541424     
 C   -14.1306223646968       -2.79896899931391        12.5799829703573     
 C   -10.6684945673746       -5.59867107260358       -3.55391390971106     
 C    11.0105296647265        14.4343286679189       -1.52536670693519     
 C    13.9887213432902        4.06569282193489       -17.5481401325472     
 C   -8.64573427587050        9.58867596043623       -13.2842619018057     
 C    4.86324742327654       -4.60421644968975        7.90002687551541     
 C   -17.1848026688553       -4.35919858617674        17.4414619563402     
 C   -12.5647524204988        9.65869104403408        17.9568933354311     
 C   -8.45863902232301        2.94690713732314        14.7697360710154     
 C   -5.95327694458241        3.37385871499490       -3.67500055090117     
 C  -0.608463312916785        13.8779588097819       -17.8285966149532     
 C   -8.88422809749400       -18.0191624456894       -18.4920147042490     
 C    8.66625587380982       -1.62519903025927        14.5677399923290     
 C   -13.4461704815178       -16.5586415757475        3.81826845822057     
 C   -15.0091811379804        3.27170679054500       -17.9219296732284     
 C    15.5398475292067        17.2020097754059        12.4591256309139     
 C   -16.5108470354773       -4.03928148175879        2.80122516243443     
 C   -17.2946206478575        5.10633626802900       -7.20561174737182     
 C    14.8937504253983        6.21520743246362       -7.16135774111991     
 C  -0.403064497578495        16.0497391413080       -8.87781062215370     
 C   -10.6509607610874        17.7327378251530       -4.92991132244082     
 C    12.8345931615599        18.4847481764317       -4.36783847201942     
 C   -13.3124690838657        9.06898342341407       -5.81611215954185     
 C   -15.1223074351981        11.9646870014211        11.0806053947825     
 C    17.4185505896702        4.41363354360812       -2.44609609689148     
 C   -15.5153931690056        13.3598193567693        18.3615012833776     
 C    18.6152725307352       -5.48246036638598       -2.53897873640267     
 C   -6.14123917197920        9.69885206562088        1.70759140405608     
 C    18.6414776162598       -1.12074153375811        12.5767885065452     
 C    11.8330498702627        17.1454000707161        1.02174478619226     
 C    17.6786937397020        9.44355969116776        8.41688977843578     
 C   -5.00324375999178        15.3472917015064       -3.55942132212219     
 C    17.9402182471105       -16.7769317127633        2.37785640077269     
 C   -17.5323588528950       -11.8274237488337       -15.8386000086543     
 C   -2.96123130211386        11.6545314038076       0.156962440737386     
 C    18.0698693076151        7.43063581302444        12.8311000448456     
 C    9.90411219340344        8.81845058654988        5.60645729515889     
 C    18.0873195226346        15.6838592762663        15.7579105739688     
 C   -5.05432919307310       -7.47969911499632       -12.4239065262382     
 C    13.1731706609999        5.93172151708889        8.49897821995650     
 C    17.7738733835884        8.11337899973195       -5.55429636906355     
 C    8.63852831667388       0.632031646203814        2.26356555539260     
         129
 
 C    14.7918118254050        4.19994299369151       -12.2318725198164     
 C   -17.8985113716108       -1.85851510628568       -8.51413869848073     
 C    13.4173404908308       -12.2253462542187        15.7313685861146     
 C    3.94114527003518       -1.16149818855281        17.7238847628866     
 C   -9.03377414059637       -15.8819391800805       -2.89545912695832     
 C    14.6389044408628        5.58264923976241      -0.382229929490665     
 C   -6.41945171135240       -3.21383706474849       -5.98274281993479     
 C    11.4028176540587        13.6737163304672       -10.9494785690019     
 C   -3.58541938226353        10.5351614714022        10.7878697992414     
 C    5.78715951727214       -11.0317306168627        12.6236713412206     
 C   -6.69039950350233        6.33538547182617       -18.1750969915148     
 C    10.1975985515562        9.36336622285966       -1.21475592858627     
 C    11.8683474448138        12.9629178781095        2.32836217511113     
 C   -7.37627113761985        17.6505047789443        1.44417906839907     
 C    2.27795694960358       -8.99163673445888       -17.9494935302870     
 C   -16.1916475757798       -4.87946578789598      -0.354077150606805     
 C   -15.6742936346725       -14.1509818481262        17.9726310988404     
 C   -2.87654973935196       -1.79845617636902       0.358899671496277     
 C    5.47809263450715        4.90749409237450        14.7810865682194     
 C   -15.7131098664462        10.4423123032996        8.59240657485242     
 C   -3.13634897348053       -1.38997631176705       -13.6517580054152     
 C    10.7783129195293        3.04607804617807       -11.5709107843020     
 C    2.86736453624566        2.98704744453740       -9.72312296139348     
 C   -13.2668745271740        7.53694496211184        14.0648504835215     
 C   -17.6472815288231        5.28091152067098        10.1430674695831     
 C   -16.6280189529013        17.5179626307707        15.3567773679057     
 C    6.21458913188580       -13.3761554332673       -9.28081461730729     
 C    3.32197759236064        8.22252796326879        4.06791494275942     
 C   -11.3740133639408        10.7034200643889        7.51229461423305     
 C    2.90729571917681       -10.6493274199592       -13.7452847986897     
 C   -17.2833079221155        9.91915833356331       -5.27920104079891     
 C   -5.01220039403689        2.77683114596365        18.0342390836362     
 C    4.69998064413174       -6.17535760794446       -5.69898346931082     
 C  -0.156875673293881        8.79897007993707        9.92530745351631     
 C    3.58261442546703       -8.15910223282669        14.0153003874018     
 C    10.5060275620487        4.60170129247981        14.6822015944231     
 C   -1.72355519200912        6.38501513127145       6.124465399969770E-002
 C   -11.7700395407562        1.51792895483886       -13.9245435620904     
 C   -11.5229297285345        11.7533699134268       -10.7821269531463     
 C   -5.98106950614392       -14.2752095134759        14.8239165542781     
 C  -0.232064411271263       -17.1145634106702        12.5412388434566     
 C   -10.4294210602852        17.1185154664475      -0.929807454541795     
 C    16.1522853913314        4.56605192963868       -8.19138154099159     
 C    17.8684685347411        8.05506179172437       -8.45868246215685     
 C    10.3190985216639       -7.12865906319856       -1.99576358646451     
 C   -11.9944086937957        14.8761018161402       -17.1252581857707     
 C    8.88755766187904       -11.3644740251174       -1.68853906311424     
 C  -0.915715754127155        3.17292255840112       -5.91609478991472     
 C   -16.0843342389856        9.77714153637563        3.02794790501634     
 C    16.1051730049381       -17.7617275812566        9.58110567987749     
 C    14.9092886319330       -10.4072940160439        6.61637439537461     
 C    5.40586722122215        10.5642084342246        17.1020023172407     
 C    4.37447705672315       -16.1521641407118       -14.7288897176731     
 C   -12.1235153044253        17.0315162293894        2.57809167055584     
 C   -9.94680768382647        17.9088435612244        9.18413740513503     
 C   -12.6887298712744        10.7744965697228       -15.2992798568845     
 C    13.9575070484195        1.44451450300901        16.7981896559310     
 C    7.41839867955238        14.9447051044654       -9.96755560234726     
 C    15.0951387149027       -2.60419390018077        5.06477794298577     
 C   -1.73564127979001        11.4811827569675        7.94978056917499     
 C   -8.40740248584803       -6.02130144636209       -14.3990500585252     
 C    13.7474901619677       -8.26162118983830       -5.65008810743416     
 C   -17.8357897815160       -7.84836345787825        18.4045913601881     
 C    5.31221768711864        10.7385909152323       -14.6439729364056     
 C   -17.8125117510730      -0.292464266040499        1.34727978534842     
 C    18.4503170883986       -11.0486093558894       -15.2251339714566     
 C    8.84985191906515        7.05949191631499       -4.27696494857894     
 C   -11.8367773291513        6.41705649830848        7.65488533129497     
 C   -6.69405011824944       -3.44857362997629       -1.59510492667439     
 C   -11.0682489069480        12.1002995331072        3.34992885976076     
 C   -12.0046136312130       -13.3601177145897        14.5715296593775     
 C    14.3606072065768       -1.38865797794930       -2.52052777063084     
 C   -2.80925516206610        7.40809010320626        3.87626910141132     
 C   -12.2687602446807        5.86128383840080       -17.0618488510809     
 C    6.44630607781298        11.7283156684671        13.3466901634490     
 C    13.0976583877010        1.52642776955536        8.06028749238284     
 C   -15.4605258179693       0.979523497219323       -9.08407361127774     
 C    16.7122786738845        6.04390781328501       -3.59198303764683     
 C   -4.51258708492745        4.68061248172780       -14.6689684188928     
 C   -18.1792956985172        2.82850263514943       -16.3530489995681     
 C    13.4705486874730        9.30349175126771       -12.6058400316896     
 C    11.2489803114552        10.2541072658880       -6.83924692107268     
 C    8.16467187450572       -16.7853787467812        5.18423086043983     
 C   -8.98524700659447       -10.3428111912193        10.0894077300578     
 C   -11.9674619157128        2.95062357736174       -8.76050914381499     
 C   -14.8534936242563        5.28423832670775       -13.7300017042344     
 C   -2.35468270418329       -4.16505483367822       -11.1655551651583     
 C    15.2285658004804       -16.9480797111598        2.57961550734567     
 C    3.24896600886089       -3.84072408774848       -15.8977402434949     
 C    10.6026984074529        5.82481155664265        11.2618901496854     
 C   -6.77112662291971        13.5125696992440        2.21287779054135     
 C    5.83861745090016        12.6118588579337        1.21764260414875     
 C    3.83990623248612       -4.28698621012199        12.9748933117106     
 C    5.02138796553515       -11.7050193235029        8.76829954457473     
 C   -6.16940502750306       -7.09776739508731        10.5015249604330     
 C    11.3733956158922       -13.4315471834119       -17.1844933082131     
 C    3.84269363945198       -5.89286446521246       -9.47408678072603     
 C   -13.3054222181368        14.7607972523537       -2.20368766661587     
 C    16.9064554480739       0.997639388701059       -10.6640778584929     
 C    2.00951243534611        11.6582478594751        10.3933765492609     
 C   -13.4642047465416       -3.76368188066371        11.7970903120141     
 C   -11.7826613355399       -5.99900775868764       -4.03452918102535     
 C    10.8518756893892        14.2263401610783       -1.50338724733865     
 C    14.5705379232980        2.89572356928059       -16.6602513639251     
 C   -9.09973409721702        9.21589426136890       -14.4201445511520     
 C   -12.4714179200047        9.25911113041464        17.6749368913932     
 C   -12.1510393215551        4.09919104950126       0.790129638286921     
 C  -0.457244868864583        14.5493880120489       -17.3921379034495     
 C    8.54138123221338       -1.60178105721743        14.3578291222946     
 C   -16.4188811606872       -16.1779978386447        2.45893846865549     
 C   -15.8202141530992       -3.30107998349173        4.41765209282715     
 C   -17.0454173487172        5.03275755991953       -7.10178395858526     
 C    1.56670262827922       -18.1418978986200       -9.38038128913470     
 C   -10.4974879203284        17.4772215661499       -4.85887477350248     
 C    11.3271803842059       -17.8436208378564       -3.81689803761836     
 C   -11.9931256680907        13.7311758897055       -5.80704840699728     
 C   -14.2464352500504        12.2028828607677        11.6758008333061     
 C   -15.2918272843353        13.1673137720898        18.0969249859175     
 C    16.8209238651113       -6.01413510543522       -1.63415639861232     
 C   -5.82234891643023        8.81446321420399        1.20465764406882     
 C   -17.7620519592667       0.417998290612782        11.0098017391958     
 C    15.9644637425107        14.2509636018809      -0.510277667996774     
 C    17.0068151138423        9.27599105523981        8.65453478971242     
 C    16.9477186643303       -13.7006127567201        4.46802572686894     
 C    18.4519746280098        18.0386896488824       0.449309793470331     
 C    15.4111554510619        10.0472371371488        11.7796569452226     
 C    10.2679099635694        8.67137303357610        6.91396238801167     
 C   -18.0100667148898        14.3198960856041        13.4795104338844     
 C    13.2298067710038        5.48952287404638        7.35685239100914     
