         119
 
 C  -7.682794006483750E+031  9.882328717769351E+031  1.808789271660114E+032
 C  -2.471501618825705E+032 -2.628416523956263E+032 -3.182761150163230E+032
 C  -2.546268785497546E+030  3.752192931134103E+031  3.393570852123082E+032
 C  -1.044345221769766E+030 -1.955801539182728E+032  3.275734708553576E+032
 C   3.066385415017373E+032 -1.835672191062774E+032  6.116981319442461E+032
 C   2.664462376848440E+031 -9.437491288157202E+031 -1.691824771666893E+032
 C   1.257098715043530E+032 -4.671677233654099E+032  1.844999981329701E+032
 C   3.344820498367671E+032  1.671152606136552E+031  3.548108882897849E+032
 C   1.568808263139757E+032 -1.705371486540194E+032 -7.389740789322895E+031
 C   1.299489278423038E+032 -1.860627279858465E+031 -1.639003066678617E+032
 C   3.846752881417298E+032 -7.624829229675370E+030  1.030432104396178E+032
 C   6.632162412465357E+032 -1.771968561803185E+032  5.068363916535344E+032
 C  -2.406260715394030E+031  1.292226339111255E+031 -5.808597454590191E+031
 C  -1.870821428750716E+032 -1.385823302315845E+032  5.642737899115513E+031
 C   4.275714812354115E+032 -3.807964535042644E+031  5.697385554223379E+031
 C   3.709925759087420E+032 -8.571965511536871E+032  2.020541907398041E+032
 C   4.326432671018591E+032 -1.032026286683745E+032 -7.122313692682419E+031
 C  -2.905940341165504E+032  1.580957713353819E+032 -1.367966581926022E+032
 C   5.479507198285679E+031  3.878835936989904E+032 -1.424509490060641E+032
 C  -1.532957336266045E+032 -2.532352278228932E+032 -6.457427313922819E+032
 C  -2.451082236101680E+032 -8.634209470135382E+031  9.672997028322701E+030
 C  -5.110201335697944E+032  3.477852185665703E+032  1.580036795445597E+032
 C   1.462393239789715E+032 -1.969229163037014E+032 -3.576950505464561E+032
 C   7.593534702662999E+032  2.876470838137699E+032 -1.957883334798257E+032
 C  -3.278689154395734E+032  5.789911430755079E+032  2.599437690282727E+032
 C  -2.004434406236383E+032  2.790393908593527E+031  5.302899890689622E+032
 C   5.349678542634727E+032  3.337395520760641E+032  2.511493110458224E+032
 C   7.543933877990559E+032 -3.926209411438556E+032 -1.466765797939675E+032
 C  -3.783678134960345E+032  5.179300242495475E+032 -5.946321948449482E+032
 C  -6.585934511283413E+031  4.342757455796365E+032 -4.560608915253215E+032
 C   4.082449092137179E+032 -3.514656660444664E+032  1.513559253428297E+032
 C   1.290913523906172E+032  5.330646166416711E+031  2.304517619716069E+032
 C   3.602615248157733E+032  5.450632067131400E+032 -9.888103497670666E+031
 C  -3.602676092530434E+032 -1.244191307107566E+032 -1.961060379405101E+032
 C   5.258788875045609E+032  2.891768614257441E+032 -3.937624100404684E+032
 C  -7.651796446506407E+032  5.292460901781717E+032  2.245111119907543E+032
 C   2.639348561386016E+032 -7.809876883046322E+032 -1.925135426443600E+032
 C  -3.156537571303080E+032  8.070628898421977E+031  7.137296499191320E+032
 C   3.247924558410184E+032 -8.516880922745805E+031 -7.729927683235137E+032
 C   3.111065390986878E+032  9.994508741848762E+031  1.575100790642806E+031
 C   2.211877519004505E+032  6.055687421091088E+032 -9.353783250980372E+031
 C  -3.339468316540408E+032  2.371782261491691E+032 -2.508506360463997E+032
 C   2.800054772173979E+032 -4.974184875883441E+032 -1.402008088525037E+032
 C  -2.935343491852380E+032  5.696324161516988E+031  1.885539722045657E+032
 C  -3.391521075714109E+031 -3.429293094371276E+032 -5.597634803352914E+032
 C  -8.659529749775721E+031 -2.847572272749866E+032 -5.732782120107825E+031
 C   4.939056779171179E+032  5.379011195333373E+031  2.841730830168611E+032
 C  -4.577936126509856E+032  8.334722669549525E+030 -6.627840646881464E+031
 C  -4.540379309868612E+032 -3.435366493429769E+032 -3.161485639459953E+032
 C  -6.175965201594473E+032 -2.992473671619313E+032  3.472719971004276E+032
 C  -2.094261268370684E+032  7.153959360732361E+031 -5.077311188425400E+032
 C   3.815666953554787E+031  3.691409419826099E+032  3.832563436461932E+032
 C   1.759809570401197E+032 -2.583381677928182E+032 -7.027154318198812E+030
 C  -1.662061584274444E+031 -8.129741182620800E+031 -4.053359714290253E+031
 C   2.624634669093007E+032  3.659407492713163E+032 -1.066290303650545E+032
 C   9.726042522342377E+032  2.760498168574056E+031  1.109333725948911E+032
 C   2.916833614557198E+032 -6.360406562294266E+032  4.128752512378516E+031
 C   2.273205269773741E+032  2.889385323577311E+032  3.301105629299397E+032
 C   6.660939218904777E+032 -1.848444128311034E+032 -8.138906378641473E+031
 C  -8.161800078658801E+032 -6.693102497264338E+032 -5.596507145434820E+032
 C  -1.819162616922693E+032  2.599212430562792E+031 -4.404729007930541E+032
 C  -2.630158288623524E+032 -3.151285196720043E+031 -6.883808480092258E+032
 C  -7.939124786756168E+031  3.710456865666476E+031  1.086976957155798E+032
 C   8.586498074606643E+031 -1.069742619749082E+032 -2.864655493496196E+031
 C  -3.301787083466666E+031 -6.742392665440279E+031 -3.692946724973664E+032
 C   3.831562274161613E+032  4.860335518729256E+032 -9.058878914490766E+032
 C  -1.915838377570958E+032 -1.860024495020052E+032 -1.919733873178897E+032
 C   2.983430829470923E+032 -1.959736676751548E+031 -4.840475482277057E+032
 C  -1.750869722450652E+031 -1.149821870270212E+032 -8.757829661290432E+031
 C   5.305048094322943E+032 -1.289505657476857E+032  3.146192557282217E+031
 C   5.028776377100637E+031  2.130430693863083E+032  2.059966664991550E+031
 C   6.745366060803775E+032  3.331120746619974E+032 -4.068685933967277E+032
 C  -4.779752499733241E+031  1.020973087199102E+032  4.860452349755824E+031
 C   4.762464508839783E+031 -8.719657731814181E+031  7.675651051239871E+031
 C  -1.444835283061478E+032 -7.780831567593270E+031  1.799145185677688E+032
 C   3.787545492222394E+032  4.340720057929747E+032 -5.208663622373073E+032
 C  -2.461807223095192E+032 -1.044549757023450E+032  1.332631882819366E+032
 C   8.340569492722441E+032 -5.144991077619357E+032 -3.952000211987663E+032
 C  -6.398546936544252E+031 -5.370052714022846E+032 -5.519720244451703E+032
 C  -3.341054231190908E+032  5.791365176857040E+032 -2.183982453862649E+032
 C   4.327736500130032E+032 -5.029742323482242E+031  1.893516695312663E+032
 C  -4.594634070346950E+032 -2.045473739169135E+032  6.605433671733778E+031
 C  -3.000723814550781E+032  1.667601418040670E+032 -1.644293880416903E+032
 C  -2.379755119218865E+032  8.257828475119450E+031  9.897531809202301E+031
 C  -3.065366006682201E+031 -1.942270910754082E+032 -5.251763329297707E+032
 C   2.085643425376809E+032  9.451311220913495E+031  5.612592428515598E+031
 C  -2.183208933539983E+032 -2.610643997648900E+032 -1.423646200301927E+032
 C   5.125758847949548E+032 -3.535412625814688E+030  3.676032987587326E+032
 C  -2.154410823660504E+032 -1.670567278035777E+032 -3.420360248366050E+032
 C  -1.395296671552788E+032 -1.273954150718351E+032 -2.645702895793033E+032
 C  -1.883114167857813E+032  3.770985876826071E+031 -4.051412061627070E+032
 C  -2.182169805802023E+032  2.210545494750419E+032  1.311034827767466E+032
 C   2.863383888905439E+032  3.567968173597995E+032 -6.952171891508591E+032
 C  -4.100010160081732E+032  5.077644895583090E+032  4.638980099979807E+032
 C  -1.026955268640458E+032 -3.492259144451182E+032  2.045418560864019E+032
 C   7.571343255317375E+032 -4.939464379405853E+032 -1.762057838521977E+032
 C  -9.868674913166358E+031 -1.508799319632672E+032  5.075545088834091E+032
 C  -1.451829462220082E+032  3.477028151375285E+032  8.780138742705274E+031
 C  -4.368485486808580E+032 -6.529215232301903E+032  8.600170357321871E+032
 C  -2.793540547457123E+031  2.439705563955311E+032 -2.048614250408343E+032
 C   5.920805172622099E+032  4.981699405296721E+032  2.215295941076502E+032
 C  -2.575648455196714E+031  1.400154493648260E+032  1.703259420944818E+032
 C   6.447594420606088E+032  4.953673172831010E+032  1.568436075511494E+032
 C   2.953028817098117E+032  5.612395244326548E+032  6.003051169768230E+031
 C   6.265722465926473E+032 -4.660364289232534E+032 -6.549397590704541E+032
 C  -1.737259815282380E+031 -4.361252602908722E+032  1.452560910269067E+032
 C  -1.927299661768303E+032 -3.243352355143020E+032 -4.053315894277163E+032
 C  -6.287400938317791E+032  1.312998962977010E+031 -1.885313597906119E+032
 C   7.702423503643660E+032 -3.515628634880215E+032  2.691243994852552E+032
 C  -5.013140538962675E+032 -1.635497716005932E+032 -1.367960814460002E+032
 C   3.049486216351863E+032 -1.342375420498974E+032 -2.422768696285576E+032
 C  -2.627830298307968E+032  4.474898346881744E+032 -1.647402947604056E+032
 C   4.276391704539055E+032  5.783974214901332E+032 -2.802359705855184E+032
 C   1.607296911729400E+032  3.200575345043701E+032  7.727237909825913E+032
 C   4.337318410857265E+032  3.426793025553688E+032  4.529088331591392E+032
 C   4.562030457594779E+031  3.524265832211680E+032 -2.476463687548726E+032
 C  -1.528770771823208E+032  5.583759999300738E+032  8.083581312853181E+031
 C   2.607413571945623E+032 -3.140907011836399E+031 -3.808196114391636E+032
 C   1.703467799742006E+032  2.586078965676617E+032  1.052843232297921E+032
