         362
 
 C   -6.59358003633430       -3.43693126770894        10.0633947702060     
 C   -15.1152174101713       -5.23500929893241       -10.8773866766500     
 C    15.4551582817743        3.38774455945435        5.71999961039219     
 C    9.69474625479882       -14.1545020952681        11.6528498353437     
 C    3.92207750234688        13.1808483471905       -14.1450866653974     
 C   -2.80325285416363       -9.28317949194448       -5.14276167770176     
 C   -3.14800755490893        4.20063802457849       -7.78866329272588     
 C   -9.71173449775737        3.28634918426794        5.29883717619054     
 C    11.4367022149337       -5.44175843584864       -8.29802662270911     
 C    6.56645236680029        10.3173774175077        2.17891192373646     
 C    7.69062983186357        4.05749278342679        4.70638335324238     
 C    4.02666091646941        10.7935878058414        11.7059731608563     
 C    13.5420187540105       -2.76250493222343       -6.14024292481722     
 C    13.7093086880011        10.8282273288484        4.99405155429326     
 C    5.10325343197750       0.884239383097504        14.3164765300154     
 C    10.9790103929037        10.0107227814379       -5.44788802219913     
 C    3.61701706076493        12.0695440148133        6.21832211610775     
 C    14.2071203061563       -16.3779913816397        13.7328322151653     
 C    9.97244322538696       -2.55645341611042       -3.23993705024677     
 C    5.28470107660139       -4.04123835329400       -11.7652716062618     
 C   -2.01125178633588        14.8836508069743       -13.7642334361970     
 C   -15.8584131029907        8.43678169990512        5.22453064087583     
 C    3.41399602125407       -10.0353997515011        9.81743818395203     
 C   -5.48626091621062       -3.88197825647050      -0.992940804793750     
 C   0.864840981073929      -0.240592637874595        7.22308104783412     
 C   0.454834871678000       -1.44346572364913       -6.47450445749702     
 C    8.52270573617604        13.0803530638284        7.91560117914702     
 C    12.5789891250867        12.2165924222860       -15.7398844845767     
 C    3.69740930651971        14.3568432614159       -6.75179617123333     
 C   -12.7967435051075        2.02409490052392       -5.73953680927271     
 C   -3.32170365591922       0.909416412147297       -4.78016862128767     
 C    14.1642424418136        7.97581497205425       -13.6101163431763     
 C   -8.74425444905444       -8.62797422080363        5.42454677162729     
 C    15.3280022235416       -12.2757101730386      -0.134060788028358     
 C    4.54065043559598        13.8988138412095        2.78892718919183     
 C    6.49697806609540       -8.48801128401808       -4.05574326213871     
 C   -9.11344369389634        6.20603912562471       -12.7113358896567     
 C   -6.79954572163894       -9.91204266891737       -6.52671164589705     
 C  -0.258039826169448        14.2074329457394        10.8591862196215     
 C    5.72134289967983       -14.8846466892559       -9.25998602264621     
 C   -12.0155568737990        8.56944062536931       0.994415495039858     
 C    11.7432943188981        16.2480243380845        10.2681916073756     
 C   -13.8197333772663       -4.69866679842691        5.71674482972892     
 C   -3.74200898427239        11.3194995929185       -13.7543170746555     
 C    5.71606312892248       -14.1212278128770        11.9877287592867     
 C   -12.6824644905767        9.78634988795317        7.30390631670697     
 C   -3.68559389677976        3.49394536605392        8.69560363021567     
 C   -15.6852893056926        15.5643364407504       0.956673399553748     
 C    8.00938177381781       -11.1677494885981       -7.29551264676871     
 C   -1.00858241179232      -0.335642400181428       -15.8051542425729     
 C    1.32711181824121       -6.19115850306431        10.2647704901485     
 C   -7.32786348508417        1.02885327234301       -5.27933115282414     
 C   -13.6855595681523        12.6847587818854       -3.48586250605140     
 C   -11.6136344851749       -4.82805463160567        15.0681190393297     
 C    6.41931002175440       -2.13368743749779       -1.35712038172844     
 C   -8.35441355354727        7.76079517971261       -6.46700071073380     
 C    3.26390684830794       -2.28920633804814       -3.72491173344262     
 C    3.78536024234879        16.1511694111869        6.68731645232373     
 C   -9.55498105823224        1.73526966544056        13.5077484537171     
 C    1.88152338879735       -14.4165709998447        10.2919656970154     
 C   -10.3289495862029        7.37877404072738        10.0258824697489     
 C  -0.508643317176853       -10.2160246431102       -2.12084568574113     
 C    8.19622907392157        8.56624479047598        13.5567883505308     
 C   -4.38057092746099        15.5925198251539       -6.53517799343030     
 C   0.682329291026846       -3.68201166440405       -14.7872114024495     
 C   0.886848041954554       -5.71032730186188       -1.23741362855750     
 C    16.0299543554618        9.20550019665626       -10.3224817574972     
 C   -9.54429479733847        14.2662522670645       -7.39998211328386     
 C   -14.1587234454855        12.8640041302905        4.15077527711305     
 C    13.2121986568358       -11.4041594285491       -13.4976220541409     
 C   -12.5823107364596        2.74470874043907        16.3559442117605     
 C   -6.94282495488933        11.1122958415233       -7.91106623296440     
 C    5.00021454203441       -9.74853649988387        6.37728964475406     
 C   -11.5843306530181        7.84577293483170       -9.42452803828105     
 C   -1.07081047185978       -2.59798423752586        4.12557691481348     
 C   -10.6714270728460       0.803383122206739        1.85884385052369     
 C    11.5397161645746        4.44536469660941       -14.7006138151237     
 C    4.67950458695552       -16.2288805383953      -0.236544810280079     
 C    11.3769400978722        7.78741517397546        5.71062216563768     
 C  -0.606232020883076       -3.17646858687527        14.5982315764509     
 C    9.31206583671810        13.8253578612691       -16.1353144120719     
 C   -8.38099330273221       -2.18723161255041        13.9333272411043     
 C    5.77455185036721        5.63078330855926       -1.99603825096697     
 C    11.6575651090449        9.78619669514975       9.531007198022545E-002
 C   -12.6879977730439        16.2696041759135       -1.75096944100665     
 C    2.12672379703638        7.44935509521187        10.4199913593216     
 C   -10.4543782640861       -10.9172962489502        8.91740147105861     
 C    8.93439876539666        8.50671671596444       -11.8940360312893     
 C   -2.14322351867174        16.1151233779857       -9.87907326641446     
 C    9.03219288171321       0.897808714045008       -12.8579602801405     
 C   -6.23264917955100        16.4557324296811       -2.37245980666564     
 C   -12.2036006033080        3.66184795260041        11.6390848404361     
 C   -5.31620390152918       -1.29840590194663        2.96040145643148     
 C   -9.71624587030795        2.48757679462165       -2.61474483631006     
 C    7.18074752632105        8.74801382177958       -6.87188254543075     
 C    1.07892919201373        16.1772364057810        14.4931307011643     
 C   -8.42972406811980        10.6032491117028       -2.55633316233852     
 C    4.26943206548169       -1.44903797656362       -15.0352911331311     
 C   -7.37749220053673        9.45777005085144       -14.3873472791481     
 C    5.48961694069006       -8.40969512012601       -8.58684482373160     
 C   -13.9765841462960        11.9858065207939       -7.64688134521084     
 C    11.2970948473266       -10.6764598397212       -1.20695291592141     
 C   -11.0901411438910      -0.597778755997798       -11.6901346981615     
 C    13.1377699110898        15.9774363261141       -15.3032170355030     
 C   -16.0316346305225       0.204524739447924       -13.7147668138352     
 C    14.5338161201209       -7.03900293245845        13.4785458837351     
 C   0.452468745542835        10.5612115790437       -8.04900336004170     
 C    5.76241935528440       0.973638980502437        6.35677102701898     
 C    7.86031223191847        9.33304628609224       -2.93525540459683     
 C   0.296011774103628       -6.14368684581437       -5.62349223752247     
 C   -11.2076704882917       -1.58869067962099        10.9202603577928     
 C    1.89082523265947        3.21654467203425        16.1749413372365     
 C   4.680929615737570E-002  -5.40337693705220       -11.5872546507098     
 C   -14.2483496676317      -0.561534119504507        12.8523227353190     
 C    16.4524430024379        15.9608565306873       -7.64999477412547     
 C    10.2389754232573       -14.1543164994811       -16.2112157990150     
 C    11.6649910532328        7.42383714880114        15.8547065326812     
 C   -4.48247218538036       -2.72499334154262        15.7762604989957     
 C   -7.89472768607321       -14.4969825468630       -12.9934641389482     
 C   -14.3221004627229       -8.62364111298528        9.11345500586959     
 C   -3.27957477641698        11.3219621729409       -7.88058767361492     
 C   -7.82667027965514       -11.8958342115851       -16.3455740561552     
 C   -6.39790354617806        15.1698390737143        7.01763920820292     
 C    2.01991521331482       -15.1916257882944       -7.82935685840566     
 C   -9.88600356534190       -4.48975588747492       -12.0054644987569     
 C   -9.62259754268595        5.26248135049609        1.47885725983546     
 C   -15.9300840586495       -4.25415927537869        10.3693085845137     
 C  -0.251221456792282       -14.4718619517975        7.11411341826750     
 C   0.450175534845702        2.82721837585485       -13.0315038767828     
 C   -2.07323130632522       -8.79736248396478        9.90893690184181     
 C    11.2833474114169       -3.92703669756112       9.220932604677051E-002
 C    12.5850858175867       0.121760362026795       -13.7499536334408     
 C   -2.77993584293948       -13.3639356558984       -15.8727651620388     
 C    7.06878409240739       -2.83835062961124       -7.41392810801702     
 C    10.8641970274113        3.69935085655770        7.85117247642043     
 C    14.5338201524886       -2.25744502409226       -2.17974333545918     
 C   -13.2867149057650       -15.4624533302278       -6.95041579833198     
 C    4.06831224932926        11.2034768175809       -9.47373232895360     
 C    5.21776787726270        3.88210120786374       -5.26890654571221     
 C   -5.28349489254172       -13.4090664536834       -6.64794774655437     
 C   -5.55548963379509        10.2535810094392        14.4560905012796     
 C    2.52220395854301       -15.7999880844776        2.65677085039272     
 C   -4.14977470473166       -7.97102781644178       -2.00294259762714     
 C    14.3757239208595       -7.56200612191586       -10.5275729862781     
 C    9.44644760891694       -2.06220461653749        3.13162028934515     
 C   -11.9571280632184        3.08186634319798       -9.97515756703406     
 C    15.6715750547412        15.1086334503351       -3.17127953637752     
 C   -4.78402783707761        2.06936823004852       -12.8529592893070     
 C    5.09832831227793       -2.97176803108090        13.5132848866545     
 C    9.75104724505380       -1.08654843128853        12.4968312496626     
 C    13.6290537860257       -11.8254939967142        4.26124961584425     
 C   -7.80232674299190        12.7121222214152        2.33320151671720     
 C    9.50214500877524       -7.38016323363480        8.96209628980461     
 C    12.8170183627435        13.8194095472522      -0.797038547886146     
 C    12.4639386687169      -0.146035180870479       -9.37203890057040     
 C   -9.62334090683471        12.4528071767259        5.66570252246756     
 C   -13.4157341275338       -5.83715276996026      -0.957338349647892     
 C    15.6633480197702       -2.63819150786195       -15.9414523136078     
 C    1.45306309280436       -7.23608664404291       -16.3730457879671     
 C   -4.29450738458748       -2.86977681370510       -6.50763905790643     
 C   0.551570366770341        11.3867043574387       -16.3825113523494     
 C   -9.37042185961010        14.5246609321107       -13.9823483447707     
 C   -14.4163166812556       -13.8068709585350        9.20315332580425     
 C   -1.12784924453354        12.2470014283230        2.77940165115821     
 C    14.9627546677549       -6.39626667843653       -4.53431082236321     
 C    6.41092584436771        7.53756175833007        7.21608478277518     
 C    14.7813064060295       -5.49456071993287        2.55329489621403     
 C   -15.7875422153258        4.27842582984565       -7.70238035433754     
 C   -14.6353748591553       -2.00278588177521       -2.55829370170464     
 C    14.6004139048827        7.27336342194887       -6.57853798466605     
 C   -12.6626983697178        1.72797112861536        7.93865432843891     
 C   -2.12101004240527       -4.85406695073228        8.40548012764237     
 C    10.9991680370339        12.2856158233969        12.3029988944046     
 C   -13.1397157806127       -1.20773294169741       -16.1128769434994     
 C   -16.3831982910838        13.1209605954955        11.8133996707538     
 C   -5.35262959699990       -8.40324887466364        13.5821561374032     
 C   -9.01814427898375        9.01967173795808        15.1120684946863     
 C    6.91334406511939       -3.32595519869249        9.76391690142477     
 C    16.4744639905089        4.07710278296820       -3.58135307135467     
 C    6.08958573763236       -16.3653329918607       -12.6660678040447     
 C   -10.9645646066585        15.1645308583153       -10.5890033631590     
 C   -5.23746890370195        7.80495403273125       -9.33908969817340     
 C   -9.59280976491228       -9.42767729782781        14.1390593523928     
 C    11.8019556851354       1.141844251526500E-002   8.93446013725779     
 C   0.947425895733490      -0.984819824875435       -10.1167753675870     
 C   -3.06327117311076       -13.5608391165774       -2.90139495372835     
 C   -3.33116909345929       -2.49307564034835       -11.7217386645418     
 C   -13.0500998255290        5.90414721288395       -12.8431384005643     
 C   -13.8712821241338       -10.0086902543737        13.4502561981240     
 C   -1.88788270242696       -14.7457984008127        13.0281467785024     
 C    14.0822747092711        12.2894620450991       -6.04182736287172     
 C    10.5619583245730        16.2934719574701       -8.71626667247347     
 C    2.76946033647389       -12.6075212146825       -1.18845470944949     
 C    11.4081136479089       -8.97019569651339        14.9530955523697     
 C    1.08913699030865        7.70736055030520       -1.21899053468460     
 C    11.0816748744587       -4.77450567227985        12.8003204719654     
 C    1.39485271665401       -15.4285404073787       -12.5444814904135     
 C   -15.1869114065189        1.09467095634732       0.723416071249290     
 C   -5.24808740296355        2.11590928361093       0.227670419493834     
 C   -14.2133829687497       -13.0747990035188        2.24051650655183     
 C  -0.216739812157104       -16.4134909817727       -2.37209561581302     
 C   -11.1872073887369        10.0738569558645       -13.7360543094210     
 C    5.34626721680305        2.13750612822666        1.20841514418562     
 C   -15.1170230424125      -0.777945156827875       -9.42190700248555     
 C    1.46889472411269        1.80599064687274        12.5041014857288     
 C   -16.1562495096022       -12.5122988453925       -5.56954036003646     
 C    8.66607950387183       -8.13658044285927       7.224156497353028E-002
 C   -2.95878888894146        6.30561295510805       -12.9044427022019     
 C    4.45079677731348        6.19268219248170        3.29780933247797     
 C   -3.56279111688081       -6.35140218226394       -8.30606544859586     
 C   0.205904246925343        3.42423804600707       -3.32444044642887     
 C   0.221736337593598        5.07394873677549       -8.96087041374069     
 C   -5.07265252550626       0.932066786323441       -8.47410098065395     
 C   -5.84420733924647       -4.61375760025563        6.00492458788156     
 C    15.4144851498751       -11.8098226972594       -10.1927288288601     
 C   -11.4443716305616        6.38688891260882        5.15557788120522     
 C    7.19433097419430       -11.5048106723061       -11.8546546058367     
 C   -1.53971705891894        7.00158032860070       -5.67918747134578     
 C    12.6287499843072       -5.01392334433554       -16.3696997178262     
 C    8.74659312908523        12.6450127474121       -7.37245497222477     
 C   -7.70671189080802       -8.87039442197699       0.391577498316740     
 C   -2.37124260487505        14.8379530120027        15.5006942079927     
 C   -14.2655007302286       -12.4884353196055       -1.80779698467902     
 C   -15.7680446016483        14.3659255191192        15.6047267111777     
 C    3.97940615560384       -2.97279599884192        1.85255526409095     
 C    3.82069760742889       -15.1178028236966       -15.8312696912256     
 C   -8.45775822429461        11.3860888658349        10.0481211041362     
 C   -4.89443362113442       -12.9926344052397        10.5596512477782     
 C   -12.2552576786991       -13.4856881403220       -15.1443468131568     
 C    10.2597545216924       -9.03327315867580       -10.3815318824184     
 C    15.0906794604848       -2.62685618502316       -12.0448430793329     
 C    10.0532277587548       -8.81609171960661        3.93319681657064     
 C   -13.1164639334219        16.1795878737785        12.9949079224854     
 C   -3.88758785554872        8.65105062441730        9.99055706486400     
 C    7.17098046141273       -12.6080349980347        8.67031558230338     
 C   -4.79478542737734        8.51560203718180       -4.96314710988684     
 C    9.35920838014887       -2.30733598332713        16.4088611394084     
 C    8.23728528907447       -10.6620157540580        11.9547466574993     
 C   -10.6333361060430       -1.31206975214160       -6.76105637419655     
 C   -9.52184687702874        13.8599101438397       -1.61717547406461     
 C   -9.91179677925432        13.5883288762909        14.6433344162426     
 C   -14.4823578900435      -0.440790911906212        4.53560683270475     
 C   -12.5337334640768       -15.2916477753599        5.50411980957171     
 C   -10.9919098775007        10.9122920647091       -5.61815618118795     
 C    7.90543944283807        6.43485107491964        1.61184410703852     
 C   -12.6845492646286        11.3959317913307        11.9201515400275     
 C   -9.77720055678082       -11.2844832218028       -11.1548748612174     
 C    14.0678822025884        1.69280782143867      -0.638407005097742     
 C    7.75000320113854       -7.31040439234936       -14.7852653011272     
 C    11.4154472055982        5.02553246307489        11.3031644980667     
 C    16.2740982706369       -8.15689685543730      -0.302410292697083     
 C   -15.0852305117681        7.81070994260831       -2.51897389468357     
 C   -7.49756239857153       -8.02912534083055        10.0678939376432     
 C    3.36298480126783        11.2890729103367       -1.14448344669415     
 C    5.78637545709782       -13.3212497890337        3.74619685120327     
 C    1.99561173204246       -11.9102735821523        12.7743194756858     
 C    11.5558959002947        5.05229408674645        2.92204974019253     
 C   -8.70233320683788       -2.20141582909991       -3.44388552522915     
 C   -2.59166386911462       -7.79914662046997       -14.9538173935736     
 C    9.84387942536458       -12.7123563692299        2.17651190940836     
 C   -16.2929952533041       0.202758853984802       -5.33184587124116     
 C    12.5372118693720        6.43287975371234       -1.34608925520921     
 C   -9.69777417469584        6.64975232775055       -2.97505111398734     
 C   -6.90243950743601        13.2067076604213       -11.6958414076301     
 C   -13.2364923141744        3.28188591025217        3.39512844707349     
 C  -7.983634083093741E-002  -10.6392232902160       -12.1461890587556     
 C    16.1383695981140        13.9012153523861        7.12320702654364     
 C    2.08064315208974       -11.5285104308973       -15.5120708610313     
 C   -7.12566292331124        4.22250719705842       -8.55535242810534     
 C    5.50296708943765        5.31200546000154        12.1886860259613     
 C    7.10255297418143       -11.5086097173351       -15.8764308776911     
 C    9.02429732811987        3.17934269495890      -0.388039389959846     
 C   -5.69157397585776        14.9317313807870       -15.1591605718580     
 C    4.47391651020183        1.22606952994961       -11.2424127038733     
 C    4.81364790581174       -6.91066400555434      -0.363021347854834     
 C  -0.578078567177632        10.5750542301266        13.0840108315406     
 C   -13.1759000001362        3.19927465106901       -1.29792447573724     
 C   -10.6266959809255       -1.63988531195946        5.41398103884060     
 C   -15.0540712148593        14.7634299762458       -11.6216384752285     
 C   -2.72942030188454       -1.27115177003572        7.88441636772290     
 C    3.42181376296669        7.74612786077905       -5.20473652714327     
 C    3.61357735566620        14.9103960017600        10.9567870362466     
 C    12.2845644931785       -14.7488564143506       -1.01663436032555     
 C   -2.54027659831389        10.1938653592880      -0.614870429430733     
 C    12.2530805989740       -9.57957059481045        10.1112209380376     
 C   -5.09120898432886        4.11530954525045       -3.48411915810598     
 C   -12.8271053538362        13.7755036347693        8.55557706267994     
 C   -1.98805515583195        6.61924872139844        5.38982215588419     
 C   -6.55825498554787       -5.48692885788527        2.29483831194058     
 C    8.04264760355724        1.89091837517278       -8.32904789353220     
 C    11.3095435493801       -7.90241477829519       -4.35713513453856     
 C    13.3497061928926       -1.76787655795428        13.9886961746912     
 C   -2.04039782008373      -0.181872797971117      -0.376273179087560     
 C   -8.15204640778215        16.3285024155421        9.99250278089215     
 C   -4.31015789264003        1.88915031537452        5.07360942393728     
 C  -0.140379642175381        10.3085402916980        6.34123091603131     
 C    15.5717392820559        2.64783461359321        11.6382345973664     
 C  -0.268322694737596        14.0519771733742       -6.65926039793988     
 C   -16.3462782926995       -12.8967166698727       -15.6903654661707     
 C   -10.7094964586885        15.5602235881346        1.97793446288449     
 C   -2.36845268075352       -10.4573297217811        1.16074542253930     
 C    13.1169387566340       -1.58566274883545        3.72155138865307     
 C    16.1832753571800      -0.192690749572199        8.03718577116322     
 C    3.57940641418082        5.59551433745716       -12.0179250660230     
 C    15.1339424360876        10.0872236479870       -3.31960409961799     
 C    16.0017152521722        10.3934096414745        9.36482497665410     
 C   -7.32385666514895        1.32048705289092        10.0490641716619     
 C   -9.28153812616415        4.88974098759965       -16.1733551567162     
 C    9.41646743447309       -2.24081584719801       -10.5713738671697     
 C    7.43927059908952       -13.0684609628581       -3.08446175402224     
 C   -6.97383411766841       -15.8811566674160        14.5458484789149     
 C   -15.0045934758545        4.84644181838437        8.37404440644017     
 C    13.4349258312469        15.0181019228337        3.36351299333558     
 C    14.1516110768331        14.3099433964328       -10.7888930510171     
 C    6.69087289237391        2.87237063309264       -15.5196093721234     
 C  -0.985078018057860       -12.9761967629626       -9.14729308120695     
 C    3.26880867738556       -11.8714288267275       -10.9810062771758     
 C    2.79024385139656       -2.01889298481081        10.4300455757271     
 C   -13.4224407506150       -10.9985439422339       -11.7993635896100     
 C    6.59606999755977        2.25577462354788        10.5043931924497     
 C   -4.25746219212486       -8.00282034814066        5.76119754094125     
 C    3.06586115478623       -5.43561051600618       -8.54204002476149     
 C    4.55321451723671       -10.1644678925512        1.71922787861155     
 C    9.48018070758322        5.20542753008191       -4.50322268122390     
 C    3.70319264401452        7.13689543974376        15.6508200764790     
 C   -13.5325128805062       -9.19625942386496       -3.44026172947975     
 C   0.204994273086820        8.15546977831924       -14.2592347760292     
 C    3.69917059204459       -7.41355835003955       -12.7696574133538     
 C   -15.9441378167523        8.03272293456549        13.6667185997600     
 C   -9.46922196223124       -15.0297802303506       -6.05813871021049     
 C  -3.670938053681493E-002   11.7205830179344       -3.60757754943258     
 C    7.67600324175657       -16.4648007894757       -5.42326971386864     
 C   -4.44406274767758       -16.4641080087167        2.72754362067148     
 C   -15.4188490391505       -2.69315932394539        1.88506091303705     
 C    4.22270703160941       0.166438457676682       -7.46915411808980     
 C    15.5840458997320        10.5382503803530       0.409012772430160     
 C   -6.68468044629013        7.88367036350358        7.64588984629629     
 C    8.95250943652641       -14.8248937650170        6.21094937702847     
 C   -1.90862340170685        7.10289682106738        14.2301216081758     
 C   0.616401740533437        13.1947693240247       -10.9509250263829     
 C    2.46396332611142       -10.4389627120327       -6.23132948567053     
 C   -4.52571507108756      -0.398727458161335        12.1848999513445     
 C    6.64194570303645        14.0859143504266       -1.11354590418761     
 C   0.339957127169117        5.55280767527450        2.24124794504779     
 C   -10.3750458099839       -3.40098230667249       0.826614114088120     
 C    12.0249787003006        9.36752241982160       -10.1162012704094     
 C    3.48057138636287       -5.14518917165906        5.69414290216610     
 C   0.987686687012324        3.18561567625084        8.60752187295507     
 C   -4.11812971006235       -12.8572458375350        6.50577599107394     
 C    13.3688888350353       -5.22541645747219        8.43805797417575     
 C   -5.26724746852605        6.22161567824494        3.07962646612977     
 C   5.701085089880541E-002  -12.9798536008100       -5.08034093160983     
 C    10.8154233426792      -1.905913167843885E-002  -6.03555717375782     
 C   -14.5720859039292        11.9485625552362       -13.9227131788568     
 C    7.55986169717173       -6.07031959213779        5.59173190275610     
 C    6.31105693470279        15.4778321841545        14.1803882611487     
 C   -12.3690396350244       -8.71946212537824        5.91647059347795     
 C   -8.45494785020695       -13.0199727663328        12.4643312794827     
 C   -10.0725965563398       -5.84310201612974       -4.46211395355634     
 C   -5.28189432801634        3.11451573496784        13.1458596306608     
 C    12.7438358997388        5.36856894568094       -10.5846627257982     
 C    5.25784788699311        11.6252351003794       -4.37448546217303     
