         6

 O    4.47366131381867        2.89932318131009       -3.09708610663065
 H    4.50045662957236        3.88312360394302       -3.27434224751420
 H    4.91192116191255        2.41259781822594       -3.85328166763278
 O   0.731473960385097        2.88811141618277        4.53779313731681
 H   0.440290946650630        3.37214886722929        5.36297263203109
 H    1.29927769397849        3.49357232278061        3.97938377967751
