         415
 MC_STEP:         2200
 C    27.1344564486417        48.2641703004948        69.1437864104160     
 C    28.1255216233282        47.4919607976030        68.2532347478490     
 O    28.7763806214981        48.4455796790501        67.4438562300599     
 C    29.1633514433337        47.8594118807189        66.2212520851104     
 C    29.3229981189285        49.0096454634069        65.2097800975104     
 C    63.5410352834634       -26.8962059752402        20.3800833410178     
 C    63.5780137342512       -25.5788002273671        19.5834186464776     
 O    64.3534837487527       -25.6559529423659        18.4083468585485     
 C    64.4309975526872       -24.3289374380208        17.9381113203047     
 C    63.0876178817575       -23.6184765498356        17.6887595134861     
 C   -53.8712735017040        68.2909389099712        64.5854406020985     
 C   -54.9791135166721        68.8560008726125        63.6771480180724     
 O   -55.8067880388584        67.9189111806008        63.0252908358166     
 C   -55.9286289478567        68.0148794073308        61.6238469759517     
 C   -56.7557556045500        66.8983001822772        60.9599853447082     
 C    29.3070622105760        8.56983404145236       -35.5189948026508     
 C    29.9090850634887        9.09444605209763       -34.2021991979286     
 O    29.7955057014512        10.4850794791674       -33.9988807490735     
 C    30.2081154343455        10.8185112532695       -32.6924824712348     
 C    29.7326646869481        12.2758964663691       -32.5455986228733     
 C    38.5601590479169       -28.1061584067107        39.5872658484059     
 C    38.3366515256180       -29.4755221606069        38.9190688259902     
 O    39.5539164736282       -29.7829773180099        38.2773232657083     
 C    39.9696902756516       -31.1236733823266        38.4106132078522     
 C    41.4210346704507       -31.3512199994840        37.9486371022179     
 C    52.0685553985990        20.7999493563178       -29.8112500889998     
 C    51.4849045726920        21.5305872393281       -28.5876815592040     
 O    50.5612224599495        22.5257467000106       -28.9679038547408     
 C    50.2676419640109        23.3411764349223       -27.8557056530581     
 C    49.0927311319378        24.2890905779261       -28.1600791927134     
 C   -67.8541774908498       -23.4377410026930        13.0878187038636     
 C   -67.8270959704780       -24.8322440717365        12.4349575259374     
 O   -69.0371704561267       -25.3527039963957        11.9320249284500     
 C   -69.4063532582868       -24.8367656822418        10.6728141777902     
 C   -70.4707107170781       -25.5892784968325        9.85277295854344     
 C    24.8220653451188        63.8438904193957       -10.7403545533006     
 C    25.0068351762112        65.2518004784493       -11.3363825181646     
 O    25.8568830293642        65.1229080481296       -12.4539268709157     
 C    26.2764487353593        66.3383287838787       -13.0325606527360     
 C    27.0303513674751        66.1083006828159       -14.3555564318229     
 C   -23.8225956084201       -67.4276189352789       -3.72342251042890     
 C   -23.1913969885292       -66.0396514240264       -3.50724097931467     
 O   -22.6195543151343       -66.0916644627354       -2.21945582941635     
 C   -21.7851528897461       -64.9645872531340       -2.07258437232780     
 C   -20.8376299982639       -65.0814000180699      -0.864215601820671     
 C   -2.60676201779999        27.5607733591019        9.16262429111082     
 C   -4.05270019820576        27.7600497432224        8.67155233806643     
 O   -4.53010429480730        26.4806593028685        8.32034666999032     
 C   -5.78316964608490        26.5133766782454        7.67470218672104     
 C   -6.42586572595014        25.1148040527486        7.72506385476779     
 C   0.847071469218341       -10.9868951809643       -41.9688246233534     
 C    1.33389036661494       -9.75253321950485       -41.1871866812594     
 O    2.16721748645044       -9.04356259894308       -42.0765834218295     
 C    2.92960858622394       -7.99522629720794       -41.5217403724450     
 C    4.37003172690003       -8.44839623363737       -41.8240946712287     
 C    20.2342135517041        12.2873583785811        25.4236189143429     
 C    20.8402110125261        13.6664138790219        25.7438890380248     
 O    22.2495727160605        13.6588491242068        25.7021475154749     
 C    22.7751363503306        14.9579441411472        25.8578234715289     
 C    24.2886065781958        14.7643137545475        26.0664261566090     
 C    48.7007346566162       -33.2481860923827        5.38922587633255     
 C    48.7070095888644       -31.7552114495313        5.76683320338307     
 O    49.8565468626408       -31.4424581357485        6.52105426681626     
 C    49.8376390248953       -30.1181046941173        7.00461445470545     
 C    51.1732226382991       -29.3786103967650        7.20701142420420     
 C    31.5909068763864       -24.5580903796517        43.3851555275148     
 C    31.9422139564015       -25.9759137763232        43.8729670621312     
 O    33.0042203517555       -26.6016257055737        43.1883306699998     
 C    32.5597822679863       -27.4659781352244        42.1668270395352     
 C    33.7515586516024       -28.0647556585675        41.3969345363467     
 C   -29.7592981767674        52.0531306953237        53.1840468881044     
 C   -30.7875285545844        52.9322426195921        52.4481770137963     
 O   -30.5840966311561        54.2723314489692        52.8366063812736     
 C   -29.4985074039294        54.9173084876856        52.2092303781797     
 C   -29.1882641088668        56.2717969106514        52.8730904141751     
 C    55.0818361944445        8.26844835177702        61.9370274313669     
 C    54.6271371316475        7.87600904216304        60.5189864963077     
 O    53.8233436753310        8.83528021496216        59.8695137191807     
 C    54.6747868397797        9.93086379362809        59.6188323280262     
 C    53.9012190122137        11.0239877295131        58.8583898157866     
 C    46.6166779270280        17.7357958457762       -42.7800235540386     
 C    45.7095075796471        18.9218453592736       -43.1567575102541     
 O    46.3541603590870        20.0837790401852       -42.6851295777338     
 C    45.4964040737628        21.2027265753322       -42.7027525336546     
 C    46.0172856473029        22.4394916390021       -41.9473092855522     
 C   -4.80160596986943        33.7683376297504        42.0305251221879     
 C   -3.90810586368282        34.7330230373145        42.8321731612745     
 O   -4.51959502481641        35.0364063665815        44.0659233600379     
 C   -3.73474850584569        35.8026846454432        44.9518881115965     
 C   -4.12030067230217        35.4650340565838        46.4041076350347     
 C   -13.3489733162411       -7.16273442498614        47.3300521271199     
 C   -13.4444673195432       -8.56757938875068        46.7064405018575     
 O   -14.5264491457198       -8.83701512251084        45.8434111252971     
 C   -14.3905842826614       -10.0068594550143        45.0681015247530     
 C   -15.4036215426864       -10.1876834188821        43.9223885845435     
 C    43.8694799246223        59.3336269039060        40.0894959247276     
 C    42.4264355463981        58.8971003060846        39.7753822454535     
 O    41.5068100434948        59.8953808810990        40.1572524060693     
 C    40.1337173482196        59.5817404786226        40.0913270837998     
 C    39.3196665530786        60.8850623667951        40.1926843539505     
 C   -2.05151631406314        35.3549832732174       -25.9514083508497     
 C   -1.94259841283417        36.3702962085843       -27.1041774025137     
 O   -2.37378130945267        37.6443834813950       -26.6812318711088     
 C   -2.14324201888564        38.6733979699359       -27.6172237609655     
 C   -2.88871507733995        39.8374125480797       -26.9382981991703     
 C   -38.6510592152408        21.6168458067146        15.0465197408734     
 C   -37.7041536743203        22.4603699792808        15.9202684614085     
 O   -37.9259035110434        22.0819503133889        17.2603153105855     
 C   -37.1955674635809        22.7571543650962        18.2597195062615     
 C   -37.4904133093216        22.1292260716097        19.6346274751672     
 C   -9.81876327954459       -62.9682268349832        50.8755664609696     
 C   -8.77128867670957       -61.8835023957456        50.5628848317834     
 O   -7.66588511992821       -62.0239964124278        51.4268549698908     
 C   -6.50269116998930       -61.2543615594646        51.2201135179996     
 C   -5.64561451254560       -62.1652503015926        50.3216140799357     
 C   -33.3457883845161        32.3475304623123       -28.6533416025606     
 C   -33.3806488436119        30.9006287781328       -29.1795166836674     
 O   -34.2406782484053        30.1005503936297       -28.3995654075281     
 C   -34.3155046029434        28.7567887260472       -28.8200479843398     
 C   -34.9619710697231        27.8538833046899       -27.7530696130104     
 C   -23.2432224396918        36.5505773738028       -33.3129348764725     
 C   -24.0337133096747        35.9591885752456       -32.1309943451915     
 O   -23.2153876133404        35.5698151272141       -31.0507946579592     
 C   -24.0709460643321        35.2520442009287       -29.9760196231988     
 C   -23.3755299861926        34.3727764743773       -28.9201386257460     
 C    40.0837667735793        42.8401425052029       -60.7201319922566     
 C    40.6573253084799        43.5346009242599       -59.4709890644242     
 O    40.3929350428404        42.8742559351533       -58.2535564073929     
 C    39.0317132882183        42.8167607521959       -57.8904178130790     
 C    38.5244555438599        44.1918708518970       -57.4178062051385     
 C   -63.8900906628960       -27.5350771769113        7.72133503745714     
 C   -65.1573764931530       -26.6754064426494        7.55838475752806     
 O   -64.9808091081165       -25.4374323434321        6.90696777907383     
 C   -66.1421390447808       -24.6510736193758        7.05206338654613     
 C   -66.2916098617376       -23.5251411150201        6.01209492164672     
 C    18.3555004160661       -5.16452429246586        25.5766351469126     
 C    17.6950109369070       -4.39874000481672        24.4152015475745     
 O    16.4499326041186       -3.76885480766929        24.6179934982159     
 C    16.0150349456782       -2.82668332255538        23.6633852438407     
 C    14.4875001734301       -2.71783210126485        23.8258317540161     
 C   -30.5344756054366        28.7883795489192        34.7473471962607     
 C   -29.0241219123369        28.4876726437165        34.7499989165722     
 O   -28.6982831084833        27.6071869935604        33.6980131346427     
 C   -27.3871139405771        27.2958682523049        34.1127613166463     
 C   -27.3486190358109        26.2579885622898        35.2498294011658     
 C   -24.2474440573027       -53.6200112617857        62.9369364685770     
 C   -23.8492466678060       -52.3191972596997        62.2151873896975     
 O   -23.7685426617374       -51.3241555218819        63.2109176719601     
 C   -23.7423914556344       -49.9994749612018        62.7285925465772     
 C   -23.2753736505623       -49.0104254890379        63.8126937636366     
 C    36.5242618638192        25.8587982980776        59.2975838739728     
 C    36.3319361882253        27.2531866024304        58.6728503135600     
 O    36.5891248103435        28.4206734335507        59.4204655243626     
 C    35.9921200927035        29.6083351895593        58.9502050428952     
 C    37.0190347495788        30.2546223308173        58.0018595594289     
 C    51.0942993484908        10.2258503034476       -32.9651458304561     
 C    49.6891391200847        10.5226272949635       -32.4092248732945     
 O    48.9415131369887        9.33432086762950       -32.5399276497231     
 C    47.6732505422087        9.51698227071974       -31.9515019513522     
 C    47.0366706537088        8.33678214927087       -31.1942083118960     
 C   -52.6996340035414       -42.3040016896620       -20.7062986032595     
 C   -52.7281299152587       -41.4079817372938       -21.9584711868544     
 O   -51.6634299760415       -40.4837000617605       -21.9437261770471     
 C   -51.7548337340987       -39.4350707802937       -21.0055780101441     
 C   -50.3750334210225       -38.7600260819428       -20.8957340811604     
 C    36.7803944153389       -23.8797520503101        37.2721316913116     
 C    36.5116034249494       -25.3168453921187        36.7882783378901     
 O    35.6967412382962       -26.1341026307346        37.5983340238168     
 C    35.5555172848504       -27.4414619609044        37.0894456502112     
 C    34.6306821768806       -28.3969094021824        37.8662340045867     
 C   -57.4650559480479        30.0810054242786        15.4391955263947     
 C   -56.8623214779216        29.3237124003385        14.2413564792084     
 O   -56.6365690409587        30.1689170464189        13.1355694585488     
 C   -57.0921305755026        29.6811037855370        11.8935541966652     
 C   -56.8684668747541        30.8738700759461        10.9454597589097     
 C   -26.3929367708404        70.2163691718260       -66.0251805994292     
 C   -26.1440840643510        68.8775660145604       -66.7444012667876     
 O   -25.3149929355040        67.9018459166324       -66.1539114851859     
 C   -26.0114741614162        66.7102471032281       -66.4421928925732     
 C   -25.0633245535775        65.5072799925390       -66.2825608493393     
 C    47.5749779595265        39.5415690038332        22.5865789789986     
 C    48.4050496903153        38.8382590080219        21.4966542460395     
 O    48.2348069694617        37.4403119682821        21.5663785724171     
 C    49.4661374941960        36.7594922307558        21.4746745711304     
 C    49.4090847767010        35.3341607760696        22.0549979027138     
 C   -60.8221362320517       -52.9774108703074        61.5326631829651     
 C   -61.9419842350079       -52.5397239901151        62.4949368431715     
 O   -62.1509498473980       -53.5148154431574        63.4917467662019     
 C   -63.2501387857089       -53.2502376953899        64.3342918945370     
 C   -63.0366041499239       -54.0375640665122        65.6404772114532     
 C    45.7031488159468        52.2349094184035       -7.36833677575594     
 C    45.5980881809948        52.3876382886808       -8.89713896113403     
 O    46.9221270757563        52.2172197267728       -9.35098751574854     
 C    46.8500687898806        52.1491005092089       -10.7574964476915     
 C    48.2625418581902        51.9474372150402       -11.3370235691937     
 C    46.5279742151641       -26.3844822517545        6.34512289846281     
 C    46.1814343241985       -25.7378603495854        7.69915028654567     
 O    44.8260735645213       -25.9116007932378        8.04687353997637     
 C    44.8265835702719       -26.5723445732237        9.29247275204423     
 C    43.4175816094766       -26.6606025147168        9.90771575095570     
 C   -51.8612777538704        40.6149543945881        22.8648199831215     
 C   -51.2862778169416        39.2084665605656        23.1153533765827     
 O   -49.9378531225503        39.1045948179872        23.5141785215513     
 C   -49.5737385146580        37.7910167975496        23.8747798756014     
 C   -50.2312136136208        37.0637348197997        25.0623771796383     
 C    39.8405415573811        16.8913327191308       -40.4865633539371     
 C    38.9312701953486        15.9645292901152       -39.6583961371902     
 O    38.7717709059760        16.3687187972042       -38.3170196759913     
 C    37.8069063466337        15.6566490249848       -37.5753371147721     
 C    38.2900730692083        15.5165386364622       -36.1198238256896     
 C   -19.2710837815265        15.4554178702534        63.1762230194601     
 C   -20.3345846969735        14.3665957884578        63.4108124854913     
 O   -19.8477434717389        13.0512701987539        63.5557407646225     
 C   -20.7075544028597        12.3560858793558        64.4306944347037     
 C   -19.8448491554060        11.1659698398209        64.8900019634131     
 C    45.8865286338907        28.7257663440204       -61.8333701266337     
 C    46.0008235045133        27.4214426069859       -62.6440958627233     
 O    44.7463732051941        26.8327483576990       -62.9046597109526     
 C    44.1423479432929        27.4838463554175       -63.9997966340596     
 C    44.8059473633617        27.0751898227600       -65.3280419372593     
 C    66.8666236978692        9.53570923932089        65.1802250157737     
 C    67.7133511368408        8.63063697574647        66.0942801553289     
 O    67.8699687512529        9.26814873159807        67.3421381903699     
 C    68.6834608450278        8.63080924598758        68.3013717351583     
 C    69.8035610154804        9.55396822838842        68.8159133164090     
 C   -59.0502443191765        32.2942671342647       -10.8334059870871     
 C   -58.6550081036118        32.6750095661215       -9.39450936685001     
 O   -57.8895629657690        31.6657973393715       -8.77508672120261     
 C   -57.2662361129817        32.0457630147483       -7.56877427406061     
 C   -56.3145808398743        31.1114634216021       -6.79868567598571     
 C   -31.5029214355089       -54.9582551269241       -33.4769736036862     
 C   -30.6081715632590       -54.0143089842238       -34.3015876108058     
 O   -30.9910476265074       -53.0348402470156       -35.2408143697054     
 C   -32.0102565026239       -52.1461541857292       -34.8413768260012     
 C   -32.9243903434814       -51.9143119808839       -36.0588366612825     
 C   -37.5188916342042       -40.2365065460565       -3.60070208989674     
 C   -38.3104286918471       -39.8482963999115       -4.86338253601765     
 O   -38.2417951116024       -38.4926106479114       -5.24483445316608     
 C   -38.7868610935720       -38.5246834408970       -6.54482461130179     
 C   -38.4328690228263       -37.1626304503671       -7.17020545711443     
 C   -57.7870539783596        22.5344700131415       -22.3548198308567     
 C   -57.4543889616480        23.6360364091809       -23.3782871723921     
 O   -56.6303628241635        23.2823324389280       -24.4663930577634     
 C   -55.2682060003859        23.4783842195879       -24.1594851127112     
 C   -54.5523742517384        23.6789234657087       -25.5081766474460     
 C    18.6552620972046        46.6637064072750       -28.2863247124315     
 C    18.2316031888635        46.0482508642885       -29.6329232235091     
 O    17.1602849324957        45.1386172603074       -29.5191519982757     
 C    17.5401928088238        43.9164419627253       -30.1108086110876     
 C    16.4530569439001        42.8450660081695       -29.9061403119598     
 C   -17.0229600105822       -8.52468675395047       -64.9665112139996     
 C   -17.0179586262836       -8.56881977538144       -63.4271518639123     
 O   -18.3103996607183       -8.54369454798495       -62.8640667130982     
 C   -18.4050998816863       -8.98804451896864       -61.5292689863113     
 C   -19.7775579823745       -8.91716947712392       -60.8343334297522     
 C    55.9071169865573       -19.6530990024703        23.1015586654784     
 C    55.9689242941914       -19.6701497299738        21.5628939652500     
 O    55.8528818007010       -20.8807113214211        20.8493291366416     
 C    55.4558060028594       -20.7033293624684        19.5080735862685     
 C    55.7551811246787       -21.8720979609077        18.5510185004928     
 C    10.9191418881681        45.6720796606054        9.21967136274674     
 C    11.2311105381991        45.6783633902492        7.71161432576134     
 O    10.9881171607025        44.4151340710568        7.13428781741854     
 C    10.7085422564575        44.4310771657955        5.75237476275609     
 C    9.56732227920360        45.4207782568186        5.45286073734848     
 C   -58.6313703458022       -68.3564167896348        42.5903143661984     
 C   -59.4731545985147       -67.0715260409454        42.4805192043022     
 O   -59.5723584079796       -66.5242995733896        41.1848333669930     
 C   -60.4814818163066       -65.4590657534209        41.0209079655849     
 C   -61.2372881849287       -65.5791292831011        39.6845167730584     
 C   -65.9972736200211        69.2655606724832       -35.1516948145812     
 C   -64.5125184487143        69.5400210902149       -34.8487533808437     
 O   -64.1425698728282        68.9701465327532       -33.6132449706872     
 C   -64.5126494306172        67.6095858455874       -33.6172120156372     
 C   -64.4605579414792        66.9684109135146       -32.2180046969341     
 C    59.8389344502899       -43.6785327767398       -43.5584927596116     
 C    60.0476009066697       -44.7834754460076       -42.5062760666854     
 O    61.1905240455442       -44.4205315655167       -41.7645898595540     
 C    60.7468863770094       -44.0724767090707       -40.4722495653739     
 C    61.7831303659583       -43.2516981979434       -39.6822362942761     
 C   -67.3573152151825       -28.5309694746323        14.6817192999661     
 C   -67.9457538191689       -28.4861145298966        16.1041566431099     
 O   -67.1257712570707       -27.7207946849006        16.9585652832348     
 C   -67.5425328100759       -28.0097742010270        18.2742022571740     
 C   -67.1488476238052       -29.3481340213226        18.9264329701897     
 C   -29.0035096084303       -52.5802976996841        54.5603652848874     
 C   -27.7240700447735       -53.4368080742392        54.5923702313966     
 O   -27.8577912244240       -54.8404079969241        54.5811499479242     
 C   -26.6052308612071       -55.4448602016143        54.3491368691049     
 C   -26.4986509945301       -56.9805867841606        54.3913806041616     
 C    12.0387910695872       -61.4744786676115       -67.1117179330537     
 C    12.1097673612844       -61.4438111031455       -68.6497757427229     
 O    12.7023188435273       -60.2188697042615       -69.0192365685242     
 C    12.5079734858051       -59.9339188987090       -70.3863989291628     
 C    13.3742863935125       -58.7306864692778       -70.8027324543278     
 C    7.79683955915947        18.6503583749138       -27.6144263404122     
 C    8.77657381725906        18.7135787156536       -28.8009017611106     
 O    8.87324639329105        17.4577104309165       -29.4345809039302     
 C    7.58330209143829        17.0148467158989       -29.7923733410196     
 C    7.53900668061861        15.4959242006081       -30.0423978330092     
 C    66.1929322957703        43.7535655027206        38.0143662905416     
 C    66.6824914319112        43.1505533355642        39.3441437641992     
 O    66.9712934234540        44.1610358627713        40.2841535851584     
 C    67.1179208776073        43.6444269791895        41.5878850188106     
 C    66.0768763218550        42.5761795745181        41.9708649828072     
 C   -3.20354033110371       -23.7124592870881       -40.9050748858374     
 C   -3.32559068063133       -23.3183619260995       -42.3887833927801     
 O   -4.01263849979970       -24.3099085549487       -43.1187837822344     
 C   -3.53730331703057       -24.4268350814931       -44.4410865657950     
 C   -4.47491876386614       -25.4412108370429       -45.1219088905461     
 C    55.5870348633483       -34.1793884326649        71.0817126245552     
 C    54.8968521681777       -34.3092295172447        69.7111692655815     
 O    53.5053727359930       -34.2301478400051        69.9247835669326     
 C    53.1852510696163       -32.8790590340751        70.1701020481091     
 C    52.0180566396797       -32.9805933541812        71.1695758506858     
 C   -40.8122112079637        65.5007140649901        17.9904728186710     
 C   -39.4184895603173        65.2462031577827        18.5940986211584     
 O   -39.3860456477920        65.1523089038645        20.0005947118856     
 C   -38.1189678733686        64.7674387018200        20.4848351905123     
 C   -38.1060878039630        64.8517344260264        22.0224724273677     
 C   -53.5243260975404       -46.4309711471618        2.51986627189460     
 C   -52.8083489328672       -45.2762578326608        3.24485854171229     
 O   -53.2810951645565       -44.7989792155333        4.48454241821714     
 C   -52.9985865823765       -43.4456349009259        4.76157683325309     
 C   -53.2374638319300       -43.0304658459055        6.22519298951501     
 C    42.7089277185920        40.2352089307674        64.9477080874712     
 C    41.4725686607685        39.6031793442107        64.2817089655457     
 O    40.2724286818299        40.2172809645416        64.6947988134843     
 C    39.1328970009728        39.9671301784351        63.9029704655873     
 C    37.8464946405558        40.7078196646049        64.3130289853898     
 C   -51.1459944410617       -54.6676924135409        45.5216752262569     
 C   -50.9290871384706       -53.3033994521961        44.8410461910453     
 O   -50.4555648495769       -53.4064193213928        43.5169376078539     
 C   -50.9421845479340       -52.4250712781995        42.6290990598669     
 C   -50.3943427511064       -52.6363079337248        41.2054248069276     
 C  -0.400129546114196       -33.1477994335655       -59.6454376395201     
 C   -1.93015095352659       -33.3009641929681       -59.5607322799499     
 O   -2.57000115141772       -32.9240319222352       -60.7593205241557     
 C   -3.93832115264420       -33.2560189155769       -60.8340534519420     
 C   -4.31903083145723       -32.8192208208567       -62.2608917407394     
 C   -20.9754843975073       -41.3787592807612        66.9026720993516     
 C   -21.1280425839578       -41.1007521307400        68.4096684406991     
 O   -21.5408014829716       -42.2445747912343        69.1233909387572     
 C   -21.4418485750547       -42.1570451240065        70.5271882458388     
 C   -21.6503853818176       -43.4730693175304        71.2993233763416     
 C   -22.9463999967796        9.09954103446538        36.7692627079219     
 C   -22.3905129179745        8.31538708907892        37.9724634839171     
 O   -23.1680472814373        8.69535910215713        39.0856398286717     
 C   -22.9899008804045        7.87096145396657        40.2155656569706     
 C   -23.6691398904153        8.41843816501517        41.4846218242108     
 C    20.3826328060319       -37.0451390463116        36.8864714447701     
 C    19.1852205608317       -37.2546053572251        35.9409939314258     
 O    18.3063685684388       -36.1520102095791        35.9427567315214     
 C    17.4190096376770       -36.1361501213423        34.8471096233709     
 C    16.3293278385703       -35.0490239686648        34.7986303254016     
 C   -12.5343796394918        17.3709467981127        67.1246710968927     
 C   -12.7255862082741        18.8137397575210        66.6212940285439     
 O   -13.8576318493836        18.9420322495754        65.7905632090019     
 C   -13.9815078283385        20.2644990032683        65.3174496632066     
 C   -14.4667747440206        21.2012252157230        66.4393498196003     
 C    61.6991011376760       -41.7608094848896       -69.6538444377667     
 C    61.3778580136034       -40.5832739422589       -68.7147955274882     
 O    60.1227481901344       -40.7969270811068       -68.1088651198491     
 C    59.6474402078193       -39.7811645582090       -67.2542255355659     
 C    58.1443332801097       -39.9182913389840       -66.9485038527606     
 C   -57.7669840772836       -42.4131714622607        16.3223830041722     
 C   -58.9133038310299       -41.4166588963084        16.0683875915781     
 O   -60.1471860420846       -41.9934649614868        15.7037926875737     
 C   -61.2032732459914       -41.1106627394564        16.0094723475494     
 C   -62.6093472838485       -41.7115863558163        15.8265883820509     
 C   -38.1300815932614        26.4385470872317        63.0582614033493     
 C   -37.8929201748649        27.9482115493105        62.8678208362315     
 O   -36.6861090950613        28.4951330850710        63.3500903075794     
 C   -36.4402880231368        29.7949455108376        62.8620742643794     
 C   -35.4438726975752        30.4409085282056        63.8426293197690     
 C   -64.7794545512817        9.12818313239657       -69.1667902284987     
 C   -65.2145401315488        8.13790236925357       -68.0705947634950     
 O   -65.3100545305382        8.76210678335477       -66.8099021599583     
 C   -65.5777320904268        7.75769500370057       -65.8572187388662     
 C   -64.6693570686447        8.17764112897937       -64.6867060267878     
 C    56.9983625290234        32.8049855968463       -57.4307420011015     
 C    55.9289820763477        33.1685111799104       -58.4775822746995     
 O    56.3665466491278        32.6400045215137       -59.7093768794481     
 C    55.5426063415808        32.9848494039846       -60.8003875927928     
 C    56.0106991460748        32.6153925331419       -62.2202434602807     
 C   -60.9597056763123       -69.0983613942714       -43.7931936745155     
 C   -60.1289464252282       -69.4942632742355       -45.0279813960039     
 O   -60.8484676214766       -70.3350447838969       -45.9017523572807     
 C   -60.2011191423282       -70.5769647844826       -47.1307823243119     
 C   -60.9312740130747       -71.6529095152431       -47.9558985213083     
 C   -16.0771618295047       -6.56174753691383       -52.8609356537951     
 C   -16.9145414960074       -5.40982234814221       -52.2748779611803     
 O   -18.0429152650512       -6.03923952923921       -51.7103368722564     
 C   -19.0057634284819       -5.07137478147907       -51.3578297883257     
 C   -20.0054077075510       -5.76678799424630       -50.4151147113778     
 C   -68.5665199111373        44.3760841405361        41.8272306235517     
 C   -68.7065070190250        45.7654994162313        41.1779781829675     
 O   -68.7332740478455        46.9323686986167        41.9690531450306     
 C   -69.4884814582923        48.0498762768089        41.5580317588606     
 C   -69.1542026684792        49.3042474252387        42.3865307933438     
 C   -10.5653161104733       -4.56207714968190       -48.5934539671975     
 C   -11.0119958826904       -5.67212891037141       -47.6239890273042     
 O   -11.4414524539831       -4.98377955232215       -46.4708012361783     
 C   -12.8267811671147       -4.72949030339889       -46.4052162723901     
 C   -13.2571061301622       -3.83972814596581       -45.2242236209092     
 C   -41.2387928130318       -55.2297983719745        26.2302174090489     
 C   -40.0709105636788       -56.2108559808975        26.0176686379388     
 O   -38.9917590907535       -55.7362491164637        26.7911545229588     
 C   -37.9771414699458       -56.5634904793815        26.2673961712122     
 C   -36.6058601088650       -56.1284534438257        26.8168778760204     
 C   -24.7303124528345        28.9783169397278        42.4200244452200     
 C   -24.2740859549395        29.5257937025585        41.0548407469529     
 O   -24.8281875972680        30.8037227131981        40.8358229272572     
 C   -24.4578205058257        31.2944989415921        39.5669388067718     
 C   -24.9116743969481        32.7552178835473        39.3882861952661     
