         405
 
 C   -10.9696795886261       -32.6392725086108        47.2667731067761     
 C   -10.0020385572739       -33.5217884219008        48.0769807944918     
 O   -8.79257391402610       -33.7370655230157        47.3849179986241     
 C   -9.10112746894386       -34.4295671917184        46.1960798346477     
 C   -7.79319378753855       -34.6089997377336        45.4031653553854     
 C   -16.2297350738244        58.6612533480127       -51.4205608249413     
 C   -15.7635815069990        57.1983122458147       -51.5393216622259     
 O   -15.1024468243230        56.9945479290134       -52.7679310493670     
 C   -14.8087295319355        55.6659639455922       -53.1376535820170     
 C   -13.9748299210225        54.9322593911464       -52.0709347797190     
 C    63.5441443534760       -25.3026864174184        28.6588195873933     
 C    64.3106090533814       -26.5959330500665        28.3246864500583     
 O    63.6443535408496       -27.7892334026997        28.6714397514644     
 C    64.3337976662230       -28.9783301597745        28.3570901048885     
 C    63.5664134712152       -30.2609358867447        28.7280941262505     
 C    18.2401563534694        55.0920002494179        68.5521959833395     
 C    19.5792695725376        54.4085277063713        68.2186678366214     
 O    20.2509735707815        55.1608326515773        67.2332993777334     
 C    20.6379443926171        54.4314944579133        66.0903123339263     
 C    20.7975910682119        55.4513465090551        64.9475023452472     
 C   -66.9369870242212       -8.71195223582547        3.51482036481120     
 C   -66.2072900640730       -9.94128845384388        4.08742386806862     
 O   -67.2009138870477       -10.7315348770861        4.70087499128849     
 C   -66.6692074465981       -11.9566060551831        5.15319000295681     
 C   -67.8286030304486       -12.8729845887963        5.58637841548890     
 C   -30.5364865013696       -44.0133045128744        62.3406815336270     
 C   -31.2723165572485       -42.9581770183594        61.4940056586241     
 O   -31.0085534771767       -41.6042983381230        61.7864805266077     
 C   -32.0721494155743       -40.8195838558161        61.2954745581288     
 C   -32.2495724821484       -39.4527515444698        61.9824173691244     
 C   -63.5835516502553       -2.79373434958444       -13.6368254486933     
 C   -62.5461532229631       -1.69406411909222       -13.9303042846941     
 O   -61.2504465046651       -2.13577134602073       -14.2681486533704     
 C   -61.0511841859174       -2.13424590447149       -15.6639968547717     
 C   -60.0364298605152       -3.20323551971192       -16.1102420777792     
 C    32.5164839501393       -38.2326872673706        29.9771415430216     
 C    33.9850626146072       -37.8021513568918        30.1489422641138     
 O    34.1509779408292       -36.4437367049103        29.8094106316906     
 C    35.4351863087464       -35.9226579733128        30.0689984265658     
 C    35.6629374617069       -34.5765842076861        29.3563871950460     
 C    58.3503698932211       -6.88287525427132       -28.3255505696393     
 C    57.1490526906283       -7.84090842503258       -28.4285523766820     
 O    56.5931770982453       -7.84062467550956       -29.7243541504455     
 C    55.6978620755430       -8.92964341696188       -29.7477889725945     
 C    56.4956520640098       -10.2468470360391       -29.7580699094796     
 C    65.7252751232649       -11.7178403520807        30.4167811664202     
 C    65.5773872754799       -13.0524877752294        31.1707343427274     
 O    64.2193297590636       -13.4133295635288        31.2872374651398     
 C    64.0310481331827       -14.7706159421235        31.6195381058809     
 C    62.5224614586980       -15.0633226388065        31.7199819845157     
 C    53.5781843423667       -57.8729176810604       -30.6266742457151     
 C    52.1766739391722       -58.1242062309507       -31.2133791144389     
 O    51.1560869721470       -57.9164917618164       -30.2629282037338     
 C    51.0181694087132       -56.5881761231430       -29.8105386484256     
 C    50.0256564170388       -56.4867974503879       -28.6374059775228     
 C   -66.3353056242489       -52.4124374653864        34.4318792942502     
 C   -64.8349061992493       -52.0678426982074        34.4725727970970     
 O   -64.1427549493926       -52.6035201760299        33.3670972077305     
 C   -62.7412182970737       -52.4594474486120        33.4222158200211     
 C   -62.0028701597514       -53.2486410423046        32.3251217323246     
 C   -3.58082671872967        50.4919125275594        9.10128324176408     
 C   -3.50832871897024        49.1481187601522        9.84999033575910     
 O   -3.27674145921945        48.1618855479825        8.86927050627452     
 C   -3.36849568944769        46.8473705271175        9.37099893994704     
 C   -3.37927998399140        45.7506243207378        8.28996638019017     
 C    8.46064901165729        14.5764564383135       -45.9298508932069     
 C    7.75040670720912        15.2300914537428       -47.1298163413405     
 O    8.58373382704462        15.9390620743046       -48.0192130819106     
 C    8.97193787531872        17.1597769197060       -47.4299314148616     
 C    10.1166517041846        17.8035655947338       -48.2341492518814     
 C    38.3011355579411       -11.6830544940868       -2.52758075263861     
 C    39.7822952424730       -12.0907662922178       -2.63499123405471     
 O    40.1929009542656       -12.9481848741915       -3.67630593977013     
 C    41.5890372604251       -12.9713934560660       -3.48043665593350     
 C    42.2106333050610       -13.7824247040874       -4.63258534837618     
 C    48.6527900555784       -33.3405956562922        7.08433092415900     
 C    48.6929876811652       -32.0080703122631        6.31338325354108     
 O    49.8493347317015       -31.2765207999955        6.65367254433160     
 C    49.9217464444471       -29.9791090375900        6.10633420049935     
 C    51.0849500467078       -29.1690415111920        6.70828762048695     
 C    35.2290674325676        8.51644548512262        30.7891688321904     
 C    35.0899099681934        7.87789294314190        29.3947206210201     
 O    35.6458133096229        8.80174389968102        28.4861113118564     
 C    35.6896271835740        8.30849404256624        27.1659276417159     
 C    36.2298714914716        9.37747277986364        26.1979294575947     
 C   -17.5326605333240        65.7023053968477        47.4453688222053     
 C   -17.6829485292304        66.4300763010544        46.0965311824012     
 O   -17.4795166058021        67.8195101100536        46.2237677123375     
 C   -18.0805621147137        68.6136301985714        45.2256607134493     
 C   -18.0275860769650        69.9805486726581        45.9329989367177     
 C    60.1693397857638       -2.37274781268019        66.6961477618234     
 C    58.9746163936639       -1.75792148761127        67.4486266979497     
 O    59.1627042706948      -0.424709740631138        67.8672785578976     
 C    59.0417097604535       0.468249446511632        66.7828043910366     
 C    57.5587628821397       0.351849143808021        66.3841573502832     
 C    58.5730433077963        10.6232037786495       -29.5441829293636     
 C    60.0449002419736        10.1857145568953       -29.4265382025527     
 O    60.3187308399851        8.88545154947381       -28.9549102700324     
 C    61.6997612081734        8.60164782580805       -28.9725332259532     
 C    62.1161336788431        7.32589730080862       -28.2170899778508     
 C  -0.120844162434915        50.5799294469737        41.6422238172535     
 C   -1.60583333664973        50.9820961379211        41.7105543186511     
 O   -1.95566829889514        51.7726807616526        40.5966910220479     
 C   -1.52874521524836        53.0812919227384        40.9022618153691     
 C   -2.18755992282796        54.1825223430511        40.0508778362350     
 C    63.2726140539927       -40.6638246016485       -31.3519548292003     
 C    64.1315736763817       -39.5419371361035       -31.9644553042033     
 O    64.5858339286751       -39.8849281660327       -33.2544571523354     
 C    65.9856721545470       -40.0537005433379       -33.2461610058578     
 C    66.6156797594616       -40.3077750995070       -34.6282378760531     
 C    48.4454427458918        33.9140484109435        38.7597925412354     
 C    49.6697709247554        33.3652774848456        38.0038355837659     
 O    50.1691743888944        32.1263933601375        38.4553467100540     
 C    51.3091308736668        31.4825570187494        37.9318259575203     
 C    51.3919735613737        30.1055017381455        38.6162642532970     
 C    52.6566493074202        60.8163348063855       -19.0829538233950     
 C    54.0638271848970        61.3120821858698       -18.7012668902657     
 O    54.0538902965534        61.6328788113960       -17.3282808106164     
 C    55.3632632384246        62.0319483348538       -16.9900707951788     
 C    55.1052499390877        62.7025523483878       -15.6279697226189     
 C   -47.3562872450885        7.16033425682240        17.0346712437611     
 C   -46.0136231125761        7.67121863767260        16.4798288086724     
 O   -45.3351437327943        8.45363633877726        17.4366925731753     
 C   -46.0409528196595        9.67094169027565        17.5266993179886     
 C   -45.6783787006706        10.6307935212652        18.6751001226978     
 C  -0.643854662543044       -62.8673696946426        18.8675747970012     
 C  -0.516801642085033       -64.2479623710184        19.5379637426967     
 O   -1.53174155120868       -65.1467047723302        19.1503310962877     
 C   -1.17564434574610       -66.4117980991125        18.6396123333732     
 C  -0.415600387083678       -66.5680495338827        17.3093797944898     
 C   -20.6682462389136       -8.88854676989863       -50.2266625611193     
 C   -22.0761259902277       -8.28157063799438       -50.3717643506316     
 O   -23.0885327583046       -9.16715826072547       -49.9488375365995     
 C   -24.3877733186973       -8.79791049987054       -50.3534732460149     
 C   -25.5570066701464       -9.47499735309512       -49.6145235180083     
 C   -58.8561394378957        30.7346748744936        48.5807354622304     
 C   -58.2257642559295        30.0373251021775        49.8005429782888     
 O   -57.5482474417304        30.9647751287244        50.6184105753638     
 C   -57.7304982288119        30.4553424517984        51.9204716331826     
 C   -57.8571953740514        31.5092093939081        53.0362279861504     
 C    20.5080199210066       -50.4210795237214       -64.7697617387639     
 C    21.6683111204292       -50.5110407453581       -63.7611829170985     
 O    22.2044853241693       -51.7505185888809       -63.3558288863187     
 C    23.5618524492169       -51.8679274861591       -62.9926902920048     
 C    23.7808860849942       -53.3718304792313       -62.7438932033998     
 C   -32.2364132992532       -2.33266917845130       -19.7385859931208     
 C   -32.9543790432327       -1.97323322073884       -18.4244585537823     
 O   -34.2815828952687       -2.44213720994718       -18.3422455642069     
 C   -35.2503801313905       -1.42799758446409       -18.1971499567346     
 C   -36.5008292873394       -2.04195271388234       -18.8536832345807     
 C    14.9600786454806       -6.09817973886489        10.3200572763088     
 C    14.6632335231032       -6.89997817234277        9.03919732923221     
 O    14.3828319497216       -5.97667251786892        8.01110121618083     
 C    14.6712036854094       -6.44009567852476        6.71103171179882     
 C    13.6912464215201       -7.55066776053839        6.28923395330100     
 C   -13.3782431583945        35.4690099573460        41.8097746869698     
 C   -13.2461486943103        36.8353931056763        41.1118147237660     
 O   -12.0858735153911        37.4090509402662        41.6710804831392     
 C   -11.5665636354333        38.5632880985806        41.0496677129576     
 C   -10.3908390872859        39.1373310611763        41.8619154593068     
 C   -51.7831907993304       -66.3980763494780        62.3833523101006     
 C   -51.4460415805237       -65.1065384165246        63.1513758194713     
 O   -50.2102256769683       -64.4972135986977        62.8520727782082     
 C   -50.0605492487247       -63.2860864412006        63.5583786433979     
 C   -48.6016517010635       -62.8060126902779        63.6712815954160     
 C    10.8402221534056        44.8686270844375        27.5653244776751     
 C    9.71791788347141        44.9442356464591        28.6171402602816     
 O    9.66467257902891        43.6270517604370        29.1174317149041     
 C    8.78103432518559        43.4020574890462        30.1929134740176     
 C    9.52376054495611        42.7144966813170        31.3536106074730     
 C    37.6179619011811        19.9150352513639       -28.2731970127629     
 C    36.7303931454230        19.6709838888532       -27.0385875193550     
 O    35.4324705973601        19.4824234078783       -27.5562186581537     
 C    34.5047315919388        19.4840057703808       -26.4944287382784     
 C    33.3020056412837        18.5249421679112       -26.5668665150947     
 C    63.4095603296884       -50.4266936066221       -29.4709368322186     
 C    63.1628095415207       -51.9318484727371       -29.6835933916019     
 O    61.9648449946900       -52.3395185926251       -30.3055146161129     
 C    61.7965434143736       -53.7263546462001       -30.4964605209329     
 C    60.3209283338244       -53.9927399802135       -30.8474575655782     
 C   -60.2872504273255       -22.6704571190033        11.9226554081095     
 C   -60.5560414177150       -22.9737245209666        13.4083808954033     
 O   -61.3709036043682       -22.0692256744313        14.1197046226812     
 C   -60.6861088128559       -20.8857613816528        14.4640421914069     
 C   -61.6548356237483       -19.9429970424911        15.2018522646200     
 C   -43.0311640202167        14.4565291952947        7.68232143591385     
 C   -43.6368320232013        13.1951999136815        8.32560571074837     
 O   -43.4228856102636        12.0154061214824        7.58370711128250     
 C   -43.9122683374392        10.8303019604992        8.17033533593807     
 C   -43.5398677436186        9.53928911588281        7.41787033992237     
 C   -39.7122154818155       -65.6900040775194        56.4925928420888     
 C   -39.3602694842932       -64.2862780555855        55.9660121564718     
 O   -40.2037286057078       -63.2884395600547        56.4961018082750     
 C   -41.4158602225834       -63.2411432235734        55.7773528952839     
 C   -41.4101188225464       -62.1579028312936        54.6827492106882     
 C   -22.2492983248470       -61.1261625961405        27.1895039735923     
 C   -23.0880897999224       -61.5800391747037        28.3986461792332     
 O   -22.1795365085198       -61.8860794021160        29.4325563723818     
 C   -22.7490160037784       -62.8627629799438        30.2751015007170     
 C   -22.0020064299629       -63.0151228046888        31.6131460133933     
 C   -72.1344534281778        61.5585603540127       -11.4518096211611     
 C   -70.9156564572160        61.7811970775686       -10.5371693641485     
 O   -71.1003948436341        63.0837965210684       -10.0300141512329     
 C   -70.1184294574224        63.2609085545190       -9.03378360166660     
 C   -70.1155509525563        64.7072653677263       -8.50497019358193     
 C    42.3113347763591       -21.0583275030964       -7.30166005227820     
 C    42.7241947276401       -19.5761001667393       -7.23724940910371     
 O    43.0384356536977       -19.1498106075891       -5.93048629217711     
 C    43.6955180809183       -17.9105576692050       -6.07399531121164     
 C    43.9303414448867       -17.2135152550755       -4.72100240727223     
 C    59.1788253503968        50.1453989729949       -9.88153265346944     
 C    60.1210189036564        50.1742089721684       -11.0993344694211     
 O    60.1943359009552        48.8123917837248       -11.4573547967442     
 C    61.2369532983925        48.6160252313750       -12.3860577307760     
 C    61.4044229487429        47.1560032265947       -12.8463724049287     
 C    27.1805042381880        12.0534359558688       -50.6360017468881     
 C    25.8180663457450        12.3966960080295       -50.0054976083849     
 O    25.6242265531954        11.8914336315334       -48.7034852976399     
 C    24.5686604463135        12.4604566296498       -47.9618027364207     
 C    24.6479969432171        11.9636802986571       -46.5062894473382     
 C   -37.2811424862877       -4.91443720368691        55.1136228822646     
 C   -37.4302691156268       -3.86246851141966        53.9988479869163     
 O   -38.0152028914575       -4.39821727496611        52.8331182876032     
 C   -38.0384243109143       -3.51979733106468        51.7304219704630     
 C   -38.7403541534030       -4.10957099526434        50.4930612879166     
 C    45.1804308280948        16.3952972602385       -43.4860310675152     
 C    45.3510188894238        17.3712926488405       -42.3070770089983     
 O    44.1808099425999        17.3245694645620       -41.5218840668282     
 C    44.3921169369012        17.8866824835675       -40.2461574863949     
 C    43.0582249732611        18.2517312627800       -39.5686092920919     
 C   -71.1187450747970        3.35030507170212        60.9882133923894     
 C   -69.6842773091026        3.77723297029955        60.6253983791724     
 O   -68.6368981562880        3.42023508481549        61.4992687423378     
 C   -67.4995061294650        4.05178212883097        60.9555889574325     
 C   -66.2822208332524        3.96042669780522        61.8944556307775     
 C   -54.6076692241645        17.7597133498147       -14.7060874520284     
 C   -54.2122417708627        18.6535132767536       -13.5159787356119     
 O   -53.9464461649443        20.0124253533880       -13.7820814516099     
 C   -53.6767525967360        20.6907878369743       -12.5757690044679     
 C   -52.3545928345477        20.5162683485592       -11.8056804063930     
 C   -5.19448599716610        69.4431052223658       -49.5570537282116     
 C   -6.48703970293034        69.5540396074872       -48.7272354086474     
 O   -6.86991576617874        70.9088540350189       -48.8045902970072     
 C   -7.79675545875235        71.1719752380937       -49.8340733793172     
 C   -8.24130873315914        72.6437183224973       -49.9232059614397     
 C    59.5896246742895       -54.2983448485517        35.1474625937729     
 C    60.0922818838113       -55.7286323564473        34.8768829509176     
 O    60.4838746780046       -55.6844286035223        33.5230731033493     
 C    61.3985985717062       -56.7168996211563        33.2308680451500     
 C    61.3804131160449       -57.0772269772382        31.7337262939678     
 C   -67.3633189085626        22.2059586896854       -39.7468832071351     
 C   -68.1249122293455        21.0321184561916       -40.3900586661300     
 O   -69.1579964247424        20.5753545756051       -39.5461369907225     
 C   -68.5018928203355        20.1627227602286       -38.3682732272832     
 C   -69.5062216069642        19.2197490253463       -37.6799970028338     
 C    23.0755854570672        46.2142756699050       -47.9659428380514     
 C    22.9087446667199        45.6648804537672       -46.5369820226169     
 O    24.1488052975395        45.9019016626074       -45.9091519739086     
 C    24.2768118292407        45.3768688195995       -44.6068252708095     
 C    25.6918264542440        45.3187344376969       -44.0018839991649     
 C   -16.3602232010974        8.30502009529471       -65.8739078130079     
 C   -16.6480968866054        6.82408500222897       -65.5647801109546     
 O   -15.7681990373757        6.25628512138479       -64.6205963037200     
 C   -16.1604658391633        6.58575518099370       -63.3069463366295     
 C   -15.3978692899429        5.93874694482471       -62.1358670127074     
 C   -64.7979175014241       -71.2988351476264       -16.9053454947029     
 C   -63.3219030768849       -71.2453003717708       -17.3413677496395     
 O   -62.7418008107045       -70.1388940825683       -16.6875738405250     
 C   -62.9031663415737       -68.8421443127716       -17.2171974804616     
 C   -61.7329785806740       -67.9119133240888       -16.8471557944232     
 C    6.04095086906199        20.9218748086626        11.2995738745029     
 C    7.03106605523582        22.0769872015362        11.5382938442803     
 O    6.46730847185006        23.3506562621311        11.3191032813724     
 C    6.68750922534297        23.7580597718182        9.98732476808427     
 C    6.26280281677227        25.2381028589260        9.96092658074262     
 C    32.2729236037208       -20.8985366904584       -57.9957018785128     
 C    32.7044180133330       -19.4228352746688       -58.0835532465300     
 O    34.1088330274241       -19.3751454051778       -58.1995020979829     
 C    34.6068335160686       -18.2640853742929       -57.4884176296672     
 C    35.2319686751657       -18.8708389053800       -56.2185136479247     
 C   -30.3704852514706        67.0653118941258       -67.5071090867810     
 C   -29.1752936710378        67.8400700803917       -66.9215608143648     
 O   -29.2744089627850        69.2461171705385       -66.9577233756886     
 C   -28.8079434588504        69.6973856549629       -68.2094688324825     
 C   -28.5606064416618        71.2169410772690       -68.2465586685529     
 C    48.7138171682226       -61.8629516973076       -63.7631746179104     
 C    48.2815322467012       -62.8605608804666       -62.6725300299696     
 O    46.8911203676819       -62.7733714484752       -62.4551529354066     
 C    46.4179824656468       -63.6070621772272       -61.4211315166483     
 C    45.1467938021107       -64.3505001151894       -61.8716638146773     
 C    63.9352224851385       -15.4368390226883        24.7943946206761     
 C    62.6339525343182       -15.1203189818746        25.5547310834890     
 O    62.5445384785334       -16.0004198576750        26.6526962772239     
 C    61.3392209577151       -16.0157806054099        27.3841836123415     
 C    61.1957207964892       -17.2200687595727        28.3332345503543     
 C   -31.3293125541879       -57.7723675329023       -55.6048692678326     
 C   -31.7284021104808       -56.3287310504552       -55.9629770581099     
 O   -33.1276632743915       -56.2079070660541       -55.8381982475118     
 C   -33.4849255430453       -54.9001557866447       -56.2258195351102     
 C   -34.9296521411534       -54.4300479027803       -55.9740983168565     
 C    8.28837111096978        68.1770709309295        70.6837376001428     
 C    8.40216051945967        68.8283851228968        69.2928954976640     
 O    9.75045824833551        69.2040460466816        69.1223900835001     
 C    9.91871600001820        69.4201463076630        67.7392451141630     
 C    11.3231739956406        69.9903177553335        67.4672116672030     
 C    56.5550583723568        69.5193295672283       -4.39189200519986     
 C    55.6714361978741        69.9626000760679       -3.21107743252205     
 O    56.0364194330548        71.2184030532143       -2.68396633205360     
 C    55.4904674709024        71.4970085047730       -1.41415711119253     
 C    56.0441916297544        72.6488501396968      -0.554942154717167     
 C    11.4112914482232       -12.7569376977602       -53.7764700772502     
 C    10.5742245210693       -12.3672069368749       -55.0089589572065     
 O    9.26343634575145       -11.9562818888864       -54.6910360797776     
 C    8.33729712997605       -11.8272845236163       -55.7463681757342     
 C    8.74425645712722       -10.6050689123567       -56.5902716317701     
 C   -51.8495391030643        66.0390363410636        38.7068546628712     
 C   -52.2846724983774        65.1312253714720        39.8722464930271     
 O   -52.0493625620862        65.6991149860759        41.1411951173288     
 C   -52.3311697311960        67.0804239651051        41.1670838000238     
 C   -52.0028627823782        67.8037177690179        42.4864247559752     
 C   -13.2735975957749       -8.68976458160037       -62.7621245564086     
 C   -12.7887980114736       -8.40337049314177       -61.3287551946307     
 O   -13.4758458306420       -7.40560586001171       -60.6072768355232     
 C   -13.0005106478728       -7.27735458078900       -59.2860243716089     
 C   -13.5969745941611       -6.10690225788141       -58.4823627151577     
 C    27.9193555788863       -31.2722117826313        67.4118022425061     
 C    27.3539747277636       -31.8780228789524        68.7098536100444     
 O    27.2616777392290       -30.9675445593993        69.7825187428519     
 C    26.7809058756036       -31.5805288196608        70.9577671046112     
 C    27.9286992339056       -32.4454827194822        71.5109624546395     
 C    6.28125657712510        69.2410364250706        31.5200628545545     
 C    4.87316946423297        69.4644437327941        32.1022825728398     
 O    4.83913094077753        69.6954354393064        33.4928163559796     
 C    3.52104516957528        69.6642118517592        33.9925912926612     
 C    3.40945914808753        69.7162077543204        35.5276629272753     
 C   -55.8138540457992       -50.2778633960519        26.3144778563263     
 C   -56.4825869978205       -50.9013244061245        27.5537084898634     
 O   -57.5593313876439       -51.7122398275666        27.1400205762605     
 C   -57.2768228054639       -53.0708532070503        26.8901034178213     
 C   -58.5199846198353       -53.8811643845774        26.4783456779608     
 C    30.0164614777403        60.1505219486212       -67.3120325319685     
 C    28.6072987188482        60.2283826320635       -67.9283100481226     
 O    28.4876070182943        59.5978070765026       -69.1837575210012     
 C    29.1381051921430        60.3022117417284       -70.2175690093431     
 C    28.3833047931686        61.4855120236447       -70.8513487329035     
 C   -53.1502421859393       -52.7159723003956        30.6833387110728     
 C   -53.3510767270580       -51.1892938851291        30.7061082233636     
 O   -52.7025750852489       -50.5368410202652        29.6375339997780     
 C   -53.3758940222038       -49.3079742345083        29.4806007910502     
 C   -52.7968441141456       -48.4977595792782        28.3059291969868     
 C   -58.1771633947652       -46.3791212953664        65.0620256152807     
 C   -59.3366943300843       -46.3965994184512        66.0753283717693     
 O   -60.3690091745202       -45.5215335612167        65.6794928010212     
 C   -61.6833544736645       -45.6337666966447        66.1774889435053     
 C   -62.5532521579689       -44.4166504859001        65.8121040972730     
 C   -68.3580801376997        66.5180879236256       -64.6986149101866     
 C   -67.2200037609166        66.7029054077327       -65.7195089275438     
 O   -67.1069225673085        67.9544996980583       -66.3589026776591     
 C   -65.9833412684329        67.8478335500042       -67.2040579282942     
 C   -65.8436562319030        68.9307281963865       -68.2900722987691     
 C   -46.4106093606643        17.3990450209255        32.1328783986696     
 C   -46.2607317968609        17.8273823652939        30.6612589579752     
 O   -46.6736535420262        16.8622586406851        29.7199132084354     
 C   -46.5871434536244        17.4631654181064        28.4473068083832     
 C   -46.3495436291500        16.4092529397068        27.3498484953914     
 C    4.79625185593856       -24.1063424970203        52.5540921386711     
 C    3.83773411710245       -23.7316435396711        51.4084724896141     
 O    3.61201834966732       -24.7733700037931        50.4854565862361     
 C    2.37980340944222       -24.5260815760236        49.8462424010233     
 C    1.65563238967892       -25.8748994779006        50.0131751395211     
 C    3.46963636655682        6.86172153090341       -36.1823455044581     
 C    3.61265618853797        7.07379972863705       -34.6637382062682     
 O    2.34965595976225        7.43138595429368       -34.1488959926311     
 C    1.84175852213062        8.50999424683598       -34.9017202377949     
 C   0.430142676698238        8.88344959762775       -34.4123617359165     
 C   -60.6623446383177       -54.4123704452302        10.4048804805609     
 C   -61.5581145469894       -53.9905126176282        9.22537541736315     
 O   -61.7121558275889       -52.5901070399978        9.16849401774435     
 C   -62.8210558249043       -52.2272793000453        8.37678900508175     
 C   -62.9242981581042       -50.7049814767943        8.16810192969795     
 C   -32.5069267054167        28.7188265706549       -61.0417911771747     
 C   -32.3818593282068        29.3907189785235       -62.4218341735445     
 O   -33.3271858664876        29.1667591970194       -63.4437440247058     
 C   -33.0674364846748        30.0247672057292       -64.5320695806116     
 C   -34.1534030496241        29.7783910807610       -65.5958248919164     
 C   -64.1333289585429      -0.919498204647060       -55.6903049680100     
 C   -63.9131503641017       -2.15932446924354       -54.8037655243471     
 O   -62.8636187416944       -1.80061869073041       -53.9331832309147     
 C   -62.5797857379247       -2.80058525274488       -52.9804998098225     
 C   -62.0141087258887       -1.97504939865472       -51.8099870977441     
 C   -56.5660316712103        31.4757433407726       -57.9596883863941     
 C   -55.8411008711398        30.2903061775470       -57.2957501299055     
 O   -54.8126651406660        29.7013219376811       -58.0596333049291     
 C   -54.3030929535369        28.5353504808652       -57.4522234367222     
 C   -54.9750370878329        27.2670277150571       -58.0102990405515     
 C    49.2486542971777       -66.8622674131637       -34.5881060668471     
 C    50.5494973896706       -67.4450968410012       -34.0052535595189     
 O    51.4594382230974       -66.5292088532492       -33.4384583009256     
 C    52.1605699271954       -65.7777676729878       -34.4037823325937     
 C    52.8987365315201       -64.5494130774003       -33.8399960351104     
 C   -1.97406589985771        17.1226948156039       -4.51536125587036     
 C   -2.28804483785491        17.8350148344806       -3.18659589807946     
 O   -3.41641860689871        17.2055976533836       -2.62205480915556     
 C   -3.97782000646451        17.9726118410381       -1.58060500023426     
 C   -5.14293456387421        17.5128899567624      -0.684634133128927     
