         500
 
 C    13.3611726657123        7.23764066089012        19.2803218407891     
 C   -2.83488683424512        4.54993938381937        14.3301393516324     
 C   -5.56333684265413       -9.65220969667955       -11.1661750428553     
 C    3.90213051980631       -13.0746527395500        4.37946797387496     
 C   -11.8269475348098       -6.81630976947243        1.69801328101746     
 C    8.50759927084145        11.5210840183877        13.4588358297412     
 C   -2.17879296262689       -6.69301854981732       -1.30496861415642     
 C    1.68193536295810        9.54326815377595       -3.53897144325900     
 C    13.1059631257337       -12.6402318249211        13.8128602907586     
 C   -4.41940360642999       -3.58910494689182       -1.70233359031155     
 C    11.3347759501878        4.18519295568608       0.848928418804405     
 C    6.53200457160790        6.19779054899430        6.05434036794084     
 C    1.38443244166573       -7.75093777268917      -0.469467620738969     
 C    16.3512464614501        13.8113966992303        20.1018054355903     
 C    10.8257464683570       -12.8112416344353      -0.119081404949054     
 C   -2.48818152128053        10.6811903318456       -8.84387836975639     
 C   -6.80258262496641       -12.8486982203252       -12.9879527476210     
 C    13.3251558807264       -10.4515689381729       -1.32139342488950     
 C   -9.65903179220455        5.04203718021829        13.2538992184711     
 C   -7.03223209007827       -13.1237575239648       -8.69376720393933     
 C    11.9108888804675        8.90101053043883       0.704103569203959     
 C    4.32475707164316        8.12044023757941        2.92697141115140     
 C   -13.9250605999340        5.63599298412026        10.7441425696380     
 C    11.7637279123670        14.3071431094775        21.5179726602873     
 C    7.59326533474509        14.4650179913700        19.9759568436178     
 C    10.2657984805239       -8.98895047094276       0.591015276607542     
 C   -8.19123435032271       -10.0944901822560       -15.2187737710137     
 C    7.25303525255671       -12.2243205192421        2.81666824966979     
 C    15.2385881205507        8.27392967323459        9.95655284002823     
 C   -11.9031795480483       -7.31619228533767       -6.10273543591731     
 C    2.19974300640427        14.1632694463204        6.33704885592413     
 C    5.99339559043009        9.33565633832953        11.2119865523863     
 C    9.35614094035862        7.87611305141887        12.9241321908083     
 C   -4.80384005637241        13.3176819883108        8.57661270076382     
 C  -0.352139164225028        10.6304022856224        14.4993799357881     
 C    8.39619685440411       -6.71110196989741       -8.66077112268704     
 C    4.12756073929080       -15.9005678335402        6.88353387264502     
 C    1.99846922639395       -3.88008581889288        1.78086858111029     
 C    5.32430254809264        12.4216208879975        8.63726590084357     
 C   -11.4002367070849       -6.60122488930362       -10.7651712585699     
 C    10.6347729538899       -4.58776156250406        1.96133052150323     
 C   -13.2469755046358       -12.1949876653917        6.23638684795110     
 C   -13.5424952505885       -12.8300234787153       -15.7047740117080     
 C    3.11379196109504        3.60953244616512        14.3640231070379     
 C    14.7933814888955        14.1161210129688        4.72427830361016     
 C    13.8778327070970       -2.84093803482257        2.51929862854015     
 C   -13.3618211758248        11.6124314526937        1.34330998248237     
 C    11.4433330390892        16.2688739681241        6.88967514740707     
 C   -13.1146492463169       -3.11673842844358       -11.7713774133548     
 C    1.81691147597907       -3.37556945612774       -7.89050095315123     
 C   -6.84511129810138       -1.47999010737313        1.09773458968889     
 C    2.66029787319625       -8.85610094774379       -3.74266228780305     
 C    12.0335876368806       -3.65953493899038       -1.17267746277311     
 C   -5.73852740313970        9.77201254213124       -10.6248213291237     
 C   -6.23618058673178        15.8639729778763        13.0085100698920     
 C    10.6049658593848        4.85301664393802        4.55807866733171     
 C   -12.4007642541885       -1.67950528581951       -15.4648545053991     
 C    1.31747104732468       0.271611293422225       -5.90385515228833     
 C    1.73061631030048       -4.93889951572217       -11.5456361767425     
 C    10.2084194987203       -9.91469407436621       -13.3232634706939     
 C   -8.54006148238558        1.65338912848157       -1.66425373408229     
 C    8.73948775049510        14.0473062930468        5.65791499441948     
 C    5.59259643835306       -6.19503177639690       -11.4127953267372     
 C   -14.1615682589077       -2.36466779672067       -2.78488389575558     
 C   -10.5438618657243       -12.3375265751937        3.12500402064713     
 C   -1.77510842430064       -2.79209211194392        2.61618262215708     
 C   -6.54402965730380        6.62823171017820        11.3358549377559     
 C   -9.23368050189866        16.0409710460461      -0.460081213164958     
 C    3.76716419682919        7.71472854809652       -6.45385285998513     
 C   0.103670992431774        12.1905842506060        17.9947402160697     
 C    6.71569971090843      -0.204717303885276        10.2403194811993     
 C    6.63822652072398        3.05711459297094        11.8645822078652     
 C    7.22812512437718       0.610033371125251       -10.1851420776043     
 C    2.23001463697665        2.30399433498297       -10.7088377733995     
 C    14.5863787855801       -13.7712222555287        2.73696757447777     
 C    4.30677539146013       -5.30818063781920       -4.41586954031951     
 C   -13.5148746997467       -8.12037741402356       -13.7799268212672     
 C    7.34910059437029       -3.30356451776494        13.2533408038231     
 C    15.1016858386062       7.064406272309326E-002 -5.936617965289148E-002
 C   -6.08665624402191      -0.502872683894302       -3.72601308425696     
 C   -13.1532123833327       -10.4718669346004       0.692617004614513     
 C    3.28582835632804       -7.57019526712658       -14.4909821995852     
 C    3.46456156717793        1.75675698385254        10.5017968709436     
 C    13.5505409354685        7.76445948457096       -3.66507953074799     
 C    7.24961429021139       -12.9455028547028        6.51116966604588     
 C   -11.7343055529759       -13.9651883469160       -9.06970811949756     
 C   -3.62391823204469        6.68114466542703       -9.16505994403977     
 C    11.1081453159139       -7.32839914231376        4.83318848284697     
 C   -11.1338098258797       -8.29361188502745        5.25931073435798     
 C    6.98448543584064        5.05870903429430        15.0911445049168     
 C    3.77778197685939        7.51916651362096        15.3445552488430     
 C    4.15519591063636        3.41747337660483        1.67186220111389     
 C   -8.47089795290509        14.5615274160220        6.68338320472017     
 C   -2.05957720414692       -10.5086293566514       -13.0903511604402     
 C    7.37934476541783        14.5988094136120       -6.20297457946701     
 C    9.43904861241364       -2.28970486495340        8.81979681157312     
 C    9.37194193528123       -5.59103473729363       -12.4108007415709     
 C   -10.1787430008772       -1.54149485680247       -4.01517517845431     
 C   0.538233940109177       -15.7656520054899        3.18464546979910     
 C   -11.4480267689462        7.58066786766033       -1.20273301221252     
 C   -13.6609399409856       -6.82765900149596        8.44588938054031     
 C   -6.21141785868684        10.0582327083360       0.742229364589766     
 C   -7.95052170396035        8.22331706329581       -2.53733771516245     
 C   -14.3330681100574        9.58597127713788        9.36136088024768     
 C   -2.09896065394856        16.1235582624644       -1.93777898157161     
 C   -2.17156859925621        8.20111332372815       -13.1194982881832     
 C   -5.16042470899349        2.44731316624399        11.7021315910345     
 C    11.2967380092625        10.6241900266508        15.7575775192413     
 C   -2.80644314189501        4.10191588372815       -2.04634978598443     
 C    5.26928407132487       -11.1855616286312       -15.0521375823230     
 C   -7.63557268204269       -7.72015636483250        7.20694500801521     
 C    9.69273658259594        1.35490272807802        7.87466247237376     
 C    4.41081761683979        14.0460937118080        12.1576918697548     
 C   -11.8999754159518       -9.22521671331640       -17.3504335124463     
 C    2.28473392620394       -16.1107714739943       -6.89527644548353     
 C    2.23061075850740        8.77606458850433       -11.5147843644666     
 C   -2.69298877794998        15.9236101519997        11.4430592612563     
 C   -3.27627284625368        11.9023378736105        11.5774842092857     
 C   -15.5609951821260       -13.5867530751160      -4.218388783478133E-003
 C    2.68830521733184       -8.52605844840232        11.2036718160003     
 C   -5.24279694882601        3.84807010944925       -7.32108818047737     
 C    6.57094903316931       -8.95219028526304        4.36003001846052     
 C    12.4607506559072        11.4931916657612        3.33463993528051     
 C  -0.561562869459471       -8.21080085776490       -8.32845923537801     
 C   -14.7969895360965        5.09790540447797       -3.36037799356128     
 C   -11.4942381254088       -11.3378891132048       -6.27126562505926     
 C   -5.20770720167199        12.7500590801226        16.2205144511161     
 C   -1.01136944138997        16.4181637718298        8.19437947659590     
 C    4.69670211070375       -1.75502192816623       -5.19650060525493     
 C   -15.9822431905496       -5.78443005521990       -5.10136894203740     
 C  -0.628541726153752        14.3883734545450        14.6510806908777     
 C   -6.20052156490895        6.94829872365411       -14.9314389863525     
 C   -9.42516293872292        8.13008976800150       -12.6602682095096     
 C    3.52608682227232       -11.3767615723735       -7.84672228340629     
 C    8.41431203066006       -7.35299401769879       -4.85179629394362     
 C   -13.1873260688764       0.970905135678271       -6.05380771516152     
 C   -16.4090464385645       -8.78796274688684       -23.7237688141460     
 C   -9.94904840452366      -0.810769428665453        7.34967772578370     
 C   -10.4368616921344        4.49732987609372       -12.4005389084010     
 C   0.995012718276969        10.7505739703011       -7.37377934503034     
 C    3.77660699838995       -7.56799993715328       -8.43381209370735     
 C    8.10099625763035        6.72365093265530        9.71471396489435     
 C    7.02570537147885       -5.48797069841192        5.77877249842158     
 C   -4.92885949171051       -10.8362478891200        8.59937705015720     
 C   -6.13323585668591        2.61120942181053        1.62722580273455     
 C   -8.16264729658882       -13.2417335663152       -4.55410042051508     
 C   -3.86570609987096       -6.46838259577742       -6.24394906716146     
 C   -3.30250795744678       -4.51613029261948        13.4378867857683     
 C   -2.78220819693850        2.08259125731416        7.79298198059701     
 C    10.8709607424612       -3.62377829649057       -4.83076479320666     
 C    11.1129604207806       -11.1807296764637        3.89006228109666     
 C   -5.08798196398368       -14.1151864438777       -1.77066923302135     
 C   -13.5103679641463        6.00817777313243        6.85316226210141     
 C   -3.96644574525477        14.2230900245983       -10.6930802838778     
 C    11.7876024104071        4.39099727290849        8.88118082272000     
 C    9.78778095653698        2.40997507482244       -12.9335816590451     
 C   -4.25148230986393       -6.20367936961080        3.51668597865163     
 C   -2.67380269293486       0.909701729716395       -4.25888365291915     
 C   -4.06311675092090        14.6151222967140       -6.81936007149195     
 C    12.3491851601944       0.939600194661891        10.9849303837177     
 C   -7.46330045654850       -13.0179534224998       -17.2005833048248     
 C    7.62553218033135       -4.45402302623536       -2.07425806520228     
 C   -8.88389047452075        1.49928601712688       -6.19332641242498     
 C   -6.35957802199149       -3.52037740757267        5.42965817859301     
 C   -3.25520782198275       0.366820245200742       0.435497664847822     
 C   -12.9394786854055        2.17236164209154        5.70221324422722     
 C   -16.1333506980631       -11.8318954155615       -3.77205906674966     
 C   -13.5614237861952       -8.58053980396972       -2.79628940854509     
 C   -4.73297449321145        13.7329175956147        4.65555248047360     
 C    8.00997321450085       -1.69536995989798        5.05227625863789     
 C    3.76032140433887        11.5094589701232        15.3541612108548     
 C   -3.51899073290508        8.39849981358499        12.8894476134342     
 C   0.851185878344490        5.15791028819699       -3.36449715328727     
 C  -0.249858538847220        15.1711774402025       -5.50681901571472     
 C   -6.32435244918264        7.48794601045907        4.02844564927292     
 C   -8.54649241927666       -10.0053699074829       -19.6780643921392     
 C  -6.893494450915211E-002  -2.71345034071571      -0.928870467078864     
 C   0.546313788533084       -14.2829631567084        7.18050482678323     
 C   0.958461292397931        6.40299653723063       -9.03144997044994     
 C    11.6706270256081       -15.1211902786955        4.59097192686051     
 C    9.45280614495049        8.90209142598774        4.64747945975499     
 C    7.84568579731182        2.31704429977942       -1.28997032155907     
 C    1.75640432901888        14.3945705263744        2.21821017690518     
 C    12.9597442286643      -0.665243435009018       -3.28409373082593     
 C    11.8491283477803        4.43697822892895       -8.62021443197851     
 C   -1.05899420414060       -14.8558356568328       -16.5042998835955     
 C    8.30166606627426        13.7856950727870       -2.23683691670619     
 C   -9.09294440913330       -3.16987765131412       -11.7631672406485     
 C    10.8273385265584       -12.3065456894077        8.36655859618415     
 C    7.60431079008627       -13.2079191672992       -12.5416406936337     
 C   -11.8098123434225        3.74157000989404       0.654968691462513     
 C   -14.9081088458693       -15.5813324329255       -23.1986023466448     
 C    6.83390339726319        8.49541560005958        17.2298192069734     
 C    2.27567469153391       -16.4245059655165       -2.33703733113801     
 C    5.65933090819002        1.50949468771081       -13.3809332696390     
 C    12.8768131043326       -12.2394375678022       -12.2305658765022     
 C   0.787789377823281        13.0485679934928       -1.98646031163172     
 C    6.15479705662757       -3.26662400988351       -9.22789081105295     
 C   0.643408503861123       -1.08662359449534        13.5064244163670     
 C   -13.7841560297304        8.56084174860260        13.4547423189379     
 C    7.13236863366906       -2.57820274672686       -13.1316304695430     
 C   -6.86901914128103        5.65517910966246       -10.9806167639976     
 C   -8.53101809210913       -7.08907755318161       -12.6682488003810     
 C    14.5453410167483        12.7265821649576        14.0203152927630     
 C    11.8230732241227        12.4524685973628        7.33475943625462     
 C   -5.71146333582843        14.5784727240227       7.398747127127911E-002
 C    11.8236351753366       -3.55467137193826        6.18560135714843     
 C    1.93764516446988       -10.5692080024304       -12.0071030837388     
 C   -10.1114177837280       -3.40014435745814        3.63774665982319     
 C   2.816400564724331E-002   1.46770778209975       -1.54359089998428     
 C    1.47132209136533        9.54365989565477        1.07627369411830     
 C   -3.57011113770535       0.315293071639695        14.8540905742341     
 C    6.76024979184429        8.68679575781281       -4.15120236778538     
 C   -6.06699547588423        9.74863202715570        7.87107801720391     
 C    4.71319440661666       -14.3840119300455       -4.69510192292741     
 C   -8.24212535330926       -7.00624974718838        2.30652393939175     
 C    6.84361756462788       -10.0742440111750       -10.8195081521803     
 C    11.8199289621183       -5.69327161599407        14.6332176197634     
 C   -11.1355324909534        12.1588513351791        8.54043470553150     
 C   -3.76270307491113        7.44516511643125       -3.35991014178959     
 C    15.0495044614234        13.1991598274864        23.7521150173268     
 C    4.26395924043026       -1.95507090908382        7.01192177155867     
 C   -10.8617938516506        4.20127319101578       -3.88777642809543     
 C  -0.530243049927129       -7.91239115667869        6.59220357297348     
 C    11.1251941509689        14.7991984384952        14.0793721865752     
 C   -11.8998186411586        1.10631981558060        9.93987630662219     
 C   -4.95500339082984       -9.82025117683442        4.51462108429126     
 C   -3.41322873808319        4.21192892481420       -11.7951758160432     
 C   -13.0152688916497        15.6775294450564       0.692714997038771     
 C   -10.1556598901381       -15.0565581272216        5.53043980653364     
 C    4.72499406208801      -0.307813113395836        13.4521222584969     
 C   -7.95314463736406        12.7088241475955       -7.93572936684022     
 C    13.6181846359982       0.218198964201910        14.7285656396605     
 C    11.2499460666334       -15.9303987682453       -14.8012196038409     
 C   -9.64814526722858        1.37320846192124        3.07906865783033     
 C   -1.91361264904041        11.2682712996692       -5.36126000511023     
 C    12.2754376266430        11.8220869411915        11.4274525397915     
 C   -6.48559630520012       -4.14065986358565        9.85666575978780     
 C    14.2920576482356        3.20570062959258        18.2760736552942     
 C   -2.76449863174506       -4.18094155045192        6.56702205177171     
 C    1.01157884980987        5.45598368956757        8.71043112586963     
 C   0.135746279133916        2.36980270722707        11.5718070455034     
 C    13.4663380992442        15.0823922745914        10.1715788947579     
 C    10.6412040145826       -15.0563695933582        11.3250396735033     
 C  -0.978442366565739       -8.55909664670791       -16.7271181037990     
 C  -0.207014814224535        1.67198438314494       -14.0176725919397     
 C    14.4110971316820        3.27374216292479        2.88186720973939     
 C   -8.97472060752395       -1.93275210228257        11.8927128654658     
 C   -11.0015656001530        9.33820219296785       -9.37440581923377     
 C   -14.1864203354099       -10.3440587614968       -19.7567808413945     
 C    14.7509536198758        1.69179656738293       -6.95365642882243     
 C    1.53338488468115       -12.1041919146359       -16.4307202515983     
 C   -12.8387121326518        7.37846210051909        2.90106215147109     
 C    11.3637095321545       -2.95325553235195        11.8875507981051     
 C    14.7907269306948        3.69822550482299       -1.48405037945925     
 C    2.36381354811237       -14.9554682504758        10.7499746759685     
 C    2.89920632174138        9.12984877970172        8.21027004014491     
 C    9.56526658510682        6.41845224085284       -2.47826930544878     
 C    3.94003759615238       -3.85754535818392       -14.6513612030659     
 C    9.10199883687286        6.29687022348714       -10.2318448641475     
 C   -12.3402387488286        13.6202237128256       -8.24882130146766     
 C    9.01906487265858       -9.04354901424271        7.64384901276345     
 C   -7.86567543292774       -14.4391263406579       -21.0001121004241     
 C   -10.4803710429454        8.64358170936188        11.3299534796431     
 C   0.732212962744968       -12.2794722514532       -4.87561756450154     
 C    5.05127154137451        5.14361293645202       -11.3950548892584     
 C    11.2308431929727        11.1073753033902       -3.30090318174618     
 C    4.50903621941639        11.5202445514122       -1.85122089649574     
 C   -1.66914243352082        16.1797643855503        3.40552667564762     
 C   -15.3398140951154       -5.23573548658228      -0.642662637246941     
 C    11.8925864571351        3.37610194328080       -4.01059359447434     
 C   -11.2069600523660       0.234842171960351       -9.38041719745591     
 C    10.2751002069277       -5.90919489637217        8.74270121734903     
 C    14.2056844358325       -9.46532770668611        2.78005701376240     
 C   -4.94366940406495        6.26966508628826       0.224775382622290     
 C    3.11803923100102       -14.8734703709054       -14.3801775066150     
 C   -6.21584714859101       -9.59716026512199       -5.32352594071418     
 C    4.58694493510257        5.68808490173088       -1.03183021665896     
 C    9.72190957914152       -11.1742999896266       -3.71595552025733     
 C   -3.90017480664498       0.256819368170486       -11.6324381370874     
 C    7.97239433716543        12.7838714248463        2.18832276062823     
 C    12.8955730542999        13.8736252340831       0.303209673705512     
 C   -9.93574970265912       -6.35498671384620        11.1054006458448     
 C    4.51388438352593        12.1784868903208        19.4824027880034     
 C   -5.14859391629074       -7.76398134906875        10.8296806742030     
 C   -11.5113139769886       -15.1783479995198       -17.4053773600052     
 C    13.0864636045844        9.69900192060807       -8.04833852643645     
 C   -9.75337703701509       -14.3575303410123       -14.1371926015782     
 C   -3.96516016496033       -14.1278871154093       -10.5257362629660     
 C    10.7509961718291       0.232731334529654       0.540025461061456     
 C   -4.37662820817035      -0.168245423108359       -8.19345026174831     
 C   -3.25656376734958       -9.49398213523046       0.903841689917525     
 C   -10.0043234747782        8.45634130604821        7.31440662908611     
 C    8.80358822571348        10.3597593099778        8.06060305128853     
 C   -4.20229956153900      -0.249825862582081        4.02830032578738     
 C   -11.2596633701098        12.3459871103303        12.3873781657718     
 C   -10.1615273088445        1.48554987049280        13.3304360947108     
 C   -9.92902032211320        9.84669107070217        1.85381118624242     
 C   0.617783939713424       -4.30114366037371        8.21014249619996     
 C   -6.62514947393194        4.56235025374873       -3.94089136327789     
 C   -6.31795055141770        16.4385978549014        17.1036904935699     
 C   -9.83120854648663       -8.75744087839503      -0.865659782439462     
 C  -0.217526064793979       -12.6616409441337       -9.52472886307823     
 C    11.8756742167299       -6.81286809603863       -6.39616824282577     
 C    3.10089087672234        15.8465594393436       -8.25657471282842     
 C   0.159218086287458        6.94245340368020        13.2470065034689     
 C    6.38564097862517        9.27378335566201       -8.66924149394685     
 C    3.87792867465404        1.72180117334133       -2.91358646132686     
 C    6.76449412172901       -16.0642289770375       -16.3716765662470     
 C   -15.4025377591818       -5.95534341454551       -10.5194327008314     
 C    4.94353100469575        14.6075547372039       0.504398118905536     
 C   -7.52232419048550       -11.0389585352996       0.980017324769560     
 C   -7.57559436479969        10.0249142226193        14.0443614434179     
 C    13.5473981194916        8.00932022068798        13.8806186190321     
 C  -0.975015910355916       -11.8247503395583        5.20147221526472     
 C   0.682778970786655       -11.9050411244840        1.40100243293263     
 C   -1.84884988659690        2.88385323745258       -8.52515247372534     
 C    3.33004280602266       -5.69373697161627        5.14606097789956     
 C    7.96880750596567       -14.8390834590470       -2.11785358482487     
 C  -0.457946221782812       -14.5683550862920       -12.7044459452572     
 C    13.1026376142478      -8.357344734191040E-002  -10.8322609237596     
 C   -10.9390667006928       -4.97031502623799       -15.1337519733420     
 C    11.8457862356260       -7.08253456868240       -2.15517141588465     
 C    13.4414422458254       -9.99191988191393       -5.95272757020889     
 C   -3.31972289506041       -13.4773191394321        2.68000498416542     
 C   -9.57622324764234        10.8680600386264       -5.19770751385444     
 C    6.24095283742994       -11.0994241894583       -1.89467870661299     
 C   0.925964090482990      -0.889435255681101        9.92003614170146     
 C    3.94286039859138       -14.4461353912857       -10.4893526084753     
 C    6.99955872281132       -11.3328090208206       -6.38374607104350     
 C   -2.27724108837452       -16.2851945589130      -0.595645597333962     
 C    11.4941710701014        14.7954055083663       -4.68920886815674     
 C   -10.6955386175109       0.992784287857237       -13.2226590850675     
 C    14.8630943839443        4.44535031157097        10.8527917596379     
 C    2.33946513096633        5.59128028413292        4.88735798169058     
 C   -7.25059301921805        3.30595971633897        5.43757080229109     
 C    11.2374527177732       0.470059066053692       -7.37670963766587     
 C   -10.0111736724736        4.94623889556770        9.19067051768195     
 C   -7.55049609303562       -1.88438367947073       -8.01114965471274     
 C   -14.0831971938163       -5.61833603040331        4.29843823486445     
 C    14.7324511367728        10.4737473391240       -1.75436580467684     
 C   -12.8792002957252        14.9758035687198        6.46939484208969     
 C   -2.31157848176177        7.51228161193768        6.14974654504880     
 C   3.486006385853538E-002  -5.44544816145466       -4.81238089407831     
 C    6.20147049640482        4.27834664841937       -8.11306766348896     
 C   0.329013577993876        13.5599068784501        10.1383426152483     
 C    11.2810472914700       -15.0328136007616       -10.4006907937240     
 C   -12.8668951937570       -3.22030316417781        10.9992668552680     
 C   -5.12073242549021       -3.76515633313696       -12.6634626121237     
 C    4.66898382757645        11.5142794607643       -5.96942113097303     
 C   -7.53177819796613       -1.16536600559135       -14.6622290931912     
 C   -4.14451621615886       -12.9828202403551       -5.75498084924433     
 C   -8.53252082019856       -11.6511107306645        6.17068216784205     
 C    2.30890442742864        15.3186933216841        17.7950238809610     
 C    13.8318063567771        6.99534016777773        3.64290966521326     
 C    2.97669979128708       -11.6703499300858        8.66140460690409     
 C   -3.36887625597157       -14.2835944387038       -19.7764855781912     
 C  -0.183382062746585      -0.445718122397035       -10.1381853651389     
 C    9.94545205329598       -11.5674972184978       -9.14306748447387     
 C   -2.86298681272675        8.94257613447848        2.71971234355737     
 C   -7.25170264041688       -5.86917215137171       -16.2202067594433     
 C    11.9464967121307       -8.42031311733927       -9.92589692973652     
 C   7.172730540120317E-002   4.71571592377079        1.05807401510853     
 C    13.9588835988135        1.04966129961963        7.43182019206478     
 C   -4.28321387399368       -15.3399171019496       -14.6086434234403     
 C   -1.33833250759101       -15.5454520660620       -4.28101384874768     
 C   -7.88330100259450        15.0055367235144       -4.41908987140615     
 C    7.48618405818472       -7.58460446389140        14.6112332813031     
 C   -17.4784481527650       -16.4053134740115       -1.91850318890105     
 C   -10.1964301033557       -10.9105766074403       -12.1076103516191     
 C   -14.6862445315226        9.85458961847002       -7.93156320386005     
 C   -1.03499796815328        7.41730104002361       -6.03872620602548     
 C   -14.6637567786518       -6.51805362271258       -17.7386560055314     
 C    5.69872037609671       -5.11783708427345        1.74311653307929     
 C   -10.4685628895479       -4.45032399310293        7.48897972809789     
 C    4.73729169331931       -8.18556354975182        7.68919810889002     
 C   -6.28403796737881      -0.272465179452873        8.42934674964395     
 C   -1.51437274428252        12.7682947127208        6.61946103665711     
 C   -12.0325032573936       -12.6316267598599       -2.87734953056799     
 C   -3.07742487224063       -4.46164541706800       -9.22563037100675     
 C  -0.738891810542347        15.0401496254801       -9.15682816064765     
 C  -0.580414788520945        8.79554031370398        9.54585491857821     
 C    8.60887753617544      -0.741237784220287       -3.09631360365374     
 C   -13.9108531507703       0.884564653485234        1.53930851389432     
 C   -1.75914250840569       -6.43616390963322        10.3249347581980     
 C    4.48615779799307      -0.846920337178644        3.38399481472212     
 C    10.0421859356501       -9.15156335931577        11.6038645380429     
 C    7.53852460544924       -16.3033106648286        2.94521423436314     
 C    4.23033666119930        11.9967388211530        3.65693022120044     
 C   -8.51825818229599        12.5789084021920       -11.4852478206386     
 C   -2.50868547403820       -2.71223327603546       -5.25228071040829     
 C    6.41451299952962       -6.19000477996824        10.6555357703162     
 C   -6.99490675445665        2.45891484145847       -14.2573673651393     
 C   -2.25321872392664        5.60109526354137        10.2759703494892     
 C   -9.87081911964001        13.5329445774678        2.84406210455554     
 C   -7.78020997803965        12.1044466382233        10.3900026478183     
 C    4.53424087260296       -15.2694081942210        1.20320148653255     
 C    5.36056130001353        15.7072866326689        4.85977039014816     
 C    11.4918919334415        16.1684971793958        3.09029776045414     
 C    9.98005645098195       -2.68237479227438       -9.70976789274504     
 C    9.19616299345365        11.3715139126149       -7.10085316001128     
 C   -12.3554128051240       -3.37668042793388       -7.18267928041224     
 C  -0.487012363534670       -6.74514317352345        2.82799886441288     
 C   -8.77483069810076        7.30798784555972       -7.10268435249464     
 C   -7.36504921747727        1.94142627292178       -10.5287871908714     
 C    7.57260338389929        2.14806885998967        3.49152806802321     
 C    7.55810996664018        8.85234362922986       0.150243730442804     
 C    5.16001271599049       -7.25152831441646       -1.44585521230956     
 C    7.58913816920832       -1.92324008824597       0.836688252798607     
 C   -16.4942062303989       -8.97638774645784        2.13526519781518     
 C   -13.3850069491250        6.90772115691258       -12.0511263175528     
 C   0.706155179451185        1.27606965537512        2.51946757310879     
 C    13.9021426231033        4.12561336783224        14.6700340428644     
 C   -3.94691236863496       -11.8886484476241       -16.3499864028481     
 C  -0.565470824760753       -10.6982834839732        9.95626760499084     
 C   0.752514594541982        5.25381214047996       -12.9435496190446     
 C   -8.89583991134583       -14.5313967332118      -0.723954517746080     
 C    1.23045419314998       -5.40552249365018        12.7740829767546     
 C  -0.634233944115579      -0.970512970901278        6.04812175063597     
 C   -11.7781850987690       -5.24224372459683       -2.97663173092707     
 C    7.75871682705176        5.44751787453151        1.72058465930620     
 C    3.67224206508066       -1.18064364333508       -11.8289791809642     
 C   -5.51674893431568        11.7791752081883       -3.49833521348367     
 C    6.90458489788703        14.0926391912460        16.2333009895584     
 C   -10.2195185794519        12.2737971619568       -1.25866655722109     
 C    2.78564542732995       -12.4313985164668       -1.36569904669221     
 C    6.19909564652943       -14.3622412311174        10.1575245792726     
 C    8.57982058314685       -16.1397107051895        7.89314245436867     
 C    10.3958909349305        7.40062339013461       -6.41223217020330     
 C   -5.74828676416538       -7.79070611477774       -1.98561756121130     
 C    11.4476383959747       0.465697613733567        3.95306187098052     
 C   -13.1956529979877       -9.97648661572826       -9.54653670419719     
 C   -7.47678070546422       -15.6077103638952        3.10670834865343     
 C   -13.3014256772387        10.9101217054352       -3.20620892939089     
 C   -15.4529017935633       -4.88795436327108       -14.6503122651309     
 C   -12.3289484844255        10.6351618277071        5.34738963649234     
 C    3.91912653828396        5.82187323917341        11.2234229005180     
 C    2.36104582078668        9.87465502218808        11.8117334613358     
 C   -12.3976428559933        4.50992287396862       -8.34208785688678     
 C   -8.87075001442584        14.1240081934567        14.9039064557478     
 C   -7.71569178430557       -5.89430044005168       -4.86140704336899     
 C   -7.91487973021183        11.1743898354485        4.99323704132303     
 C   -12.6109242311319        1.05246916494771       -1.93793796425811     
 C   -11.9843177898864        10.9547078069071       -13.4185028166193     
 C   -1.93321692069056       -7.14389500473757       -12.0354513476086     
 C    13.9865991371739       -2.31291545744408       -7.27791910418034     
 C    3.74722483806281       -3.23587049028722        10.9834761074499     
 C   -1.86263061166968        10.3975810062883       -1.26624475611571     
 C    5.80484592550042        2.27796452685859        7.16732730314174     
 C   -5.52525595780487        9.03614006700049       -6.40900979720176     
 C    4.18514007576395        15.2668982088591       -3.86766131747502     
 C    12.8305664486306       -13.5892987833541       -4.21150430376396     
 C    1.99422670845260       -9.22721943705884        4.31985944725531     
 C    6.19171727137161       -10.4779604491251        11.1082115967097     
 C   -11.6475400954696       -15.7049841575650       -5.62841835880998     
 C    1.84337967420295        2.01013109296391        6.64985691768848     
 C    10.6609244123084        6.10467294130714        16.1915017348645     
 C   -3.35523589418490       -1.75501163573496        10.2884709456581     
 C   -1.73125561111908       -12.3693913013636       -1.75533159088554     
 C   -8.74714900767777        5.95521562150813       0.991259994707447     
 C    6.03736888818316        4.25709390214299       -4.36968726707865     
 C   -1.99691187574075        12.6526678992562        1.77230068587875     
 C    9.20091190019247        13.8316741785638        9.98506863269289     
 C   -11.2842027679408       -12.6092267691748       -20.3458097063885     
 C   -11.1636141155250       -1.65773208485308       0.392777806908063     
 C    13.1620960586718       -8.47692386383932        8.26376671459001     
 C    13.3208509509053       -4.83424798178928       -10.8450353276207     
 C  -0.710154723392365       -3.37323648169107       -13.7913385506401     
 C   -14.3274506852688        14.1747393161603       -12.6737447113573     
 C    7.90198910363085        1.36874663956010       -5.90846964934730     
 C   -15.1624520095118       -14.0015941434827       -19.5459139851975     
 C    8.98923830211544        11.0230396645689        19.0080278959463     
 C    10.1469376831767        4.09327549024683        12.8286329812179     
 C   -12.8695580217904       -16.2576334025107       -12.1121545090509     
 C   -8.62764558365650       -8.63175697156551       -7.69599362324384     
 C   -15.3891912904919       -2.41072890969110        2.03378887404501     
 C   -13.3123645235094        4.73942238896270       -15.0512193938775     
 C   -10.4628989579446        5.15987219304630        4.77503605344148     
 C   -10.2095470106703        15.6984491136882        10.4558677864374     
 C    9.30633982975057       -14.6417156935639       -6.61240210030683     
 C    9.01415713121584       0.269400280015192        13.8908480367341     
 C   -12.4280876881803        15.4576919760652       -2.92882721187091     
 C    13.2315561500960        12.3077246820713        18.7069582463207     
 C    8.97397874260354       -12.6632939555533        13.9342573412860     
 C   -5.04476393205168       -13.7942620544542        6.16716885822528     
 C   -1.88646337401797        3.59812498934658        4.52196938910687     
 C    3.91760518949374       -2.19509736193723      -0.885728831156417     
 C    2.33238092668210        3.86031798232580       -6.54890853799176     
 C   -15.3664610105832       -15.8772052078804        3.12736362057312     
 C   -13.9276600259020       -1.36866093119483        7.35520487714438     
 C   -11.9514258736525        7.71065991340276       -5.59111577594129     
 C   -16.3094717511856       -15.3013797079292       -10.7457983237786     
 C   -5.49860428934591        5.58006208904791        7.37384380238130     
 C   -8.46258569607873       -4.82169401902716      -0.905501447919248     
 C   -1.23825007517830       -8.86699291955453       -4.41658339985489     
 C    11.3331135567266       -2.24578774259405       -13.5293229452446     
 C   -4.69430163032329       -8.48681823150421       -14.8139733804285     
 C   0.786669700831970        10.2562918924980        5.05308959604537     
 C   -6.74868886514462       -5.48182655179010       -9.54952662347724     
 C    12.1276062099221        8.47417938410487        7.20024407390438     
