         500
 
 C    14.3534416961960        8.35279874527057       -4.25089193600736     
 C   0.860165042122572        3.55165518439739        13.5181244814360     
 C   -2.92176536982610       -14.4253934704897        13.1939438527877     
 C    2.10724107899606       -14.9562797057543       -12.6436932357566     
 C   -7.10189409413049       -5.70161616035007        7.41412333757261     
 C   -4.87221138710718        7.84854192660294        4.07293072721762     
 C    6.51550188188385       -11.2919325320978       -5.84023091022645     
 C    6.02599482977925        8.32137396450933        4.17688616568002     
 C   -11.7902956518798       -11.2832763276614        8.31263010581572     
 C   -9.96445410194425        10.6375915076465       -13.6034364229160     
 C   -3.82121095982983        7.63877834025529       -7.71378116731925     
 C    5.26734044946023       -1.58024065975401       -2.27792375272588     
 C    13.5372622058972       -11.5818047405709        15.3090386422821     
 C    12.3816490332442        12.5830288494375        6.36766386863397     
 C    3.21868995875896        13.9485986499280       -8.46665563319496     
 C   -1.25077169688171        7.22674064117026        3.21034988533115     
 C   -5.01105680793037        14.7804854772139       -7.36346961695916     
 C   -14.7191133287883        1.34449801954819        7.34660725053235     
 C   -15.1873539653012        6.34291835855738       -12.2184761650754     
 C   -10.0079821085721        15.5477931987403        10.5877634928060     
 C    10.8141161640506       -11.6029752567468        2.06380132195530     
 C   -6.38121695592721        15.0982113871302        5.67733149132934     
 C    8.93038443825099        15.0746635256358        10.6153638901868     
 C    14.4922911316324        12.5024517506386        14.8340859281301     
 C   -4.87569650751922       -9.24474013029409        6.79781312055679     
 C   -14.7748843360400        13.8039796486238       -10.5413689901327     
 C    11.9512009086869        7.83103987695481        13.1367202120321     
 C    5.89607248296293       0.344122329123430       -6.45151857270499     
 C   -7.84204736630921        8.84687525461980      -0.886487850976998     
 C    7.90893474656207       -6.00069616384583       -1.66205438092960     
 C    2.06263538579206       -14.6161931303110        10.9533405616226     
 C    8.79145383909394        11.7931397638750        4.37018489961825     
 C    11.5188555137891        7.25141627448800       -1.82907677603286     
 C   -10.6421668660603       0.279706351529908        3.78599721589043     
 C  -0.661893163174759       -15.3142585953859       -7.49100835290784     
 C   -2.14007713198119        14.7300085981309        8.36127196929248     
 C    14.8510444729679        10.4987478585617       -12.9822919739160     
 C    3.10893501229579       -4.79176721656827        2.62905753821934     
 C   -5.52939284167328        11.8402894917979        3.67856392818161     
 C   -2.07814194945849        12.4489007088117       -4.77899391855633     
 C   -5.55598582620381       -10.4268036080233       -10.6745543817530     
 C    3.74082941217127        3.05374835235656       -10.6788808507327     
 C   -8.04393847024086       -12.4995782280145        6.94070755035126     
 C  -0.308665059220711       -10.3261590286093       -2.24550323394449     
 C    2.87662328627173       -10.5506464017053        7.90766559184960     
 C   -7.77138805818022       -9.92071487362815       -13.6394817974002     
 C   -3.82063602899981        8.27306100276722       0.511996279277270     
 C   -4.93662515613154       -8.36828218116697        10.3779025577330     
 C   -4.45852442400323        10.0524353839428        7.24045128737390     
 C    3.12690924417919       -1.49187200739802        8.89592982938059     
 C   -14.1223676002013        10.7893013775911       -6.30719589194241     
 C   -13.5374115155735       -13.1751244959472       -13.5918631043656     
 C    12.3062516041089       -5.12137265098720        8.99347239670089     
 C    4.62062259191310        6.92846646605232       -12.7246839777497     
 C    12.3248036671945        1.82772184476490        15.1795817717058     
 C   -8.06407617371005        13.1837411683971        8.46528399695541     
 C    2.28006460386840       -5.25965558124878        11.4307104929125     
 C   -13.7583389179709        6.73797887775787        2.27150874305843     
 C   -11.9956749692074        8.89721019160769        9.51603472278054     
 C   -5.91243266936140       -15.0896268966900        10.1288165007394     
 C   -7.56640422075536        2.20566377213464        9.53092781315083     
 C   -1.01988983129180       -2.40661530567284        7.54728334076708     
 C    3.13513056586751        15.4444340704855        3.41624701783096     
 C   -11.0531114777641        3.45110960389994        7.44568580330976     
 C    13.9166045018230        15.5409440261649       -14.3351101450631     
 C    6.83945041287182        14.7861108949700        3.13927702652601     
 C   -14.5793822634415        8.28067331103958        15.2205570299490     
 C    3.09981770803058       -5.63029422023009        7.33535325085380     
 C    8.28925720743011        6.94295272116893       -10.2782121782675     
 C   -14.5287429436774        5.30828230051106        7.60089661341699     
 C    13.9251291989541       -8.97220153737761        11.1250947613885     
 C  -0.589740213502411       -4.33951983565364      -0.177603518339677     
 C    5.62986456675542      -6.817347878509961E-003  -11.7217607109267     
 C   -1.66702597996634       -7.40499808434727        14.7198824685703     
 C    3.46281336799068       -9.97275894996771       -13.0207679549714     
 C    5.76555943639851        7.89099803591738        8.67673653628305     
 C   -14.2249776212583       -11.8610490614851        13.5504747334362     
 C   -11.5331633987597        11.8853882500261        7.20710816076021     
 C    5.99558711887585       0.405831977401581        15.0057289853869     
 C    2.60098418016006        6.36973718267914        5.57219340016332     
 C    15.2140217864895       -9.59286098947422       -4.58298151199529     
 C   -10.8734207599480       -15.1182145012026        6.87021341401708     
 C    2.69049702870564      -3.127126911105133E-002  -8.91849908906630     
 C   -12.2796188526644       -1.51553435698039       -13.7367076071951     
 C   -12.2705135319661        8.66922249749576      -0.681595938191864     
 C   0.344512477089815        6.30999209186677       -10.9833284858542     
 C   -3.26127795867816        13.5426954124448       -13.2574659448905     
 C   -15.1677332245898       -9.81733150976466       -11.7551886613399     
 C    4.22529942824957       -6.19059975564831       -12.3250481405717     
 C   -3.02383608134250       -9.22959377575498       -13.3318334764275     
 C   -8.01088550788361        8.97945292537064        6.40109322884578     
 C  -0.113782746309199        2.41239051268503       -11.0681335605058     
 C   -13.2244376345494        12.1520313801637       -14.9580420286118     
 C    8.23149354360387       -2.88156378579419       -5.35083377898818     
 C    4.58897306470271        1.75010884883319        11.6059287364903     
 C   -15.4711362893005       -2.27747679987173        10.6396073204084     
 C   -12.4562139288263        7.33655628331316       -4.66985720756145     
 C    5.82087083832591       -6.64605500442056       -5.09545634673032     
 C   -4.11995492496750       -13.1711113229861        7.13062498153725     
 C   -1.11224113282003       -12.1437819898210       -10.7836119570186     
 C   -4.27190739168180       -4.56363940207822        5.69965381552207     
 C   -7.02365855130803        13.3978810675817       -11.2841727607258     
 C   -8.60695212452458      -0.135928144591554       -13.9213124969730     
 C   -15.3606624764632        3.41134305217255        3.59691887279889     
 C    9.76014709325068        2.00728207716719        7.38281035801335     
 C   -4.10870825135327        12.3671680986746        10.9650143910757     
 C   -7.53514816922652        8.97683299079062       -10.8426504715280     
 C    9.97322193790101        9.17413005585789       0.985361783100188     
 C    4.68242899648670       -4.68907553853037        15.0933534717357     
 C   -11.4316707810480      -0.561594996305123        8.13131863278245     
 C    3.62705921128079       -11.9823563184837        2.79985548444900     
 C   -3.11384594518016        4.23065433663642       -5.19069807949433     
 C   -8.52765584676774       -14.1882007953492       -10.6872655817259     
 C   -10.0838992043016        10.4519134883205       -4.13644244439551     
 C   2.485086866813514E-003  -3.17589099734817        3.59981360669302     
 C   -4.23629542671461        3.95418165033956        1.98703756760795     
 C   -12.3966794927803       -15.0206812526233        3.19752785375144     
 C    6.18568957124900       -4.19514329294430        9.00929984703383     
 C   -13.0030361809654        10.5151759655326       -10.4966262551392     
 C    5.84923024305644       -7.81880970514805        1.50416125894015     
 C   -3.89457991229628       -2.71526747550160       -2.76856451148449     
 C   -2.89622932762354       -13.4184664719963      -0.701994253171921     
 C   -4.42527597845047        6.79797685348239       -11.8674231036177     
 C   -1.46770580474979        4.50400639767996       -14.3551145818770     
 C   -11.6679888955831        3.23463502671044       -3.25967011695412     
 C    13.4259286466456        5.88608502779876       -14.8923639051517     
 C    5.73561415858346        5.07250797288490       -7.10207751530872     
 C   -4.09033402126378       -14.7849875086950       -10.6359614093007     
 C   -6.99448125694169        1.99324651473308        13.2637818934296     
 C   -6.59793340377171        1.56164922900443        4.84600300584387     
 C    13.9999383921664        15.0183989240186       -3.58292258114649     
 C    12.3528299529929       -1.89266782590283        12.8393101761939     
 C   -9.19312972661829       -3.38666305759320        9.99028484327967     
 C    4.14597708538731       -8.76458639651138        12.1424236009491     
 C    9.12618371295116        11.2666036088211        8.56947001074327     
 C   -1.39960566938235        12.8117633179260        13.9007994651686     
 C   -6.54282890283388       -2.46072972972027       -11.4187673850206     
 C    15.1993737206789       -10.9405731325603        4.97888034424009     
 C    14.8452227906052       -3.33383409104580       -5.91690709520059     
 C    9.22971227900796       -1.18276352775521        5.31150459954009     
 C    2.08371194279616       -7.70569418931234        15.3394952546138     
 C    3.43239353012625        7.50647241489791       -9.06657782763251     
 C   -7.36599179019043        2.94373364659688       -5.17014238168820     
 C   -5.68395709629101       -7.04804332288305        3.34027659827297     
 C    3.46487754003648        13.4243676298490        14.1004559429957     
 C   -15.2204647987209       -5.46468827068775        12.6767768462891     
 C    5.13775828606314       -2.42494969043398        12.0600340924356     
 C    10.9280709728593        11.4718208974963       -14.5514156260403     
 C    2.98099675224536        7.12796108069288        12.0282276930035     
 C    6.58526808887974        1.37363705105433      -0.205944415105171     
 C    15.1121424779991       -13.6279665970101        1.70212510606698     
 C   -4.15763095207017        2.75354776747390       -12.3525669817311     
 C    2.18875630246235        6.61071306716200       0.724067655136939     
 C    15.0314323380193        1.32218036524282       -2.39856535377902     
 C   -4.60201721870822       0.924590001731729       -1.95358480552993     
 C    12.1431644531025        3.89864096019246       -3.78827385608164     
 C    7.47318561659960        3.96899976888032       -13.9785066399641     
 C    6.99111856230658        4.04324091914195        9.78190170435887     
 C  -0.487195298811821        10.5917049130408       -1.56856539725608     
 C    3.47747944219911        9.48197488747171       -1.63283791832408     
 C   -14.1265591555137        11.3282910124439       -2.69046943123708     
 C   -5.62953515628508        4.93256916693302       -1.98871534577930     
 C   -7.50962138854706        6.29426357923501        2.24944447930266     
 C  -0.746232755065860       -6.75264272614689        7.03912759597807     
 C    2.40515853858636        2.92798963079695       -14.1492344649297     
 C   -12.9777446109982       -5.13754731511333       -11.8796633483167     
 C    1.88782515521087        7.05908606785275       -15.3222444006008     
 C   -1.70565119455440        2.67421865612729        4.74494032478023     
 C   -12.6457230427551       -4.56590488028681        9.29064405905422     
 C    12.4402583508061       -12.2707944256515       -2.68780350013645     
 C    12.2776759619205       -15.1199716502696        4.20732254344990     
 C    4.87964251904246        4.71855088027580        14.1983669206059     
 C   -11.0987580432013        13.9398869165797       -1.24400297736089     
 C    13.0203816964572        2.68273319728973       0.659880586415297     
 C    3.24163003773094        3.35419890780258        8.39825868549729     
 C  -0.532598217520608       -12.0294891607271        11.1834711601781     
 C   -15.0367051842583       -14.5003215234158        5.93015872365192     
 C    6.36242891451575        10.5104112441051       -9.19327340278948     
 C    7.96206076227707        11.5356454489799        12.8140478587001     
 C   -6.93123042576419       -13.3309534565961       -5.80941643267224     
 C    9.53092130802375        10.5517040689713       -3.48457280836545     
 C    1.86229367129449        13.8552866807047        6.50628541409228     
 C    6.43570433764284      -1.657952627312065E-002   7.85536050392212     
 C    2.02746771107565       -7.44172282080740       -3.87833786636841     
 C  -0.162933360140800        1.12056487292394        8.96530354807594     
 C   -9.69952181790768       0.587142887971050       -1.45624185503303     
 C   0.633410872281590        11.1888592331736       -14.2668080231921     
 C    8.43598642925148       -2.13569689671658        13.5187705088244     
 C    6.05951192695014        4.75935054499464        1.21602618336822     
 C    9.89104372120350       -15.5251942854236       -13.3007839880677     
 C   -12.8616456425422       -3.75371189567964       -7.81519332547945     
 C   -13.6713423339645        14.5868863162653       -5.71897028443977     
 C    4.90610241182443        9.90552730025760        15.3713449213946     
 C   -3.52932165398686        9.66000205292830       -15.0096606424318     
 C   -3.77124166966207       -4.14836849602275        2.04600592264982     
 C   0.325666324726962        2.25123720527388       -7.17906418389811     
 C    11.1916304422250        3.64692088636282       -11.7417552782410     
 C   -15.4726730213709      -0.402727646082314        14.4990216334790     
 C   -10.1243009561331       -3.02407665744073       -10.2337740523277     
 C    13.7045430221864        1.42719570726935        10.2868869369810     
 C    14.1225179090708       -5.98751007700085       -13.4934489773866     
 C   -15.3061214209419        7.71844888805612        11.0378394715644     
 C    9.12641390043950        5.06078621237396        13.4637501202474     
 C    6.69823237791377        13.2034158187056       -1.55788335949884     
 C    8.63317955229370       -1.95112735463939       -1.45446451800483     
 C   -9.68714741917106       -4.49208928466349       -14.0175251696618     
 C   -13.1338217000982       -8.73970903671667        11.1428234295507     
 C   -1.63024722840340        14.8340144046907        4.59620613251056     
 C    4.57782152369201       -14.3479044428992        7.09347508349524     
 C    12.2272623941951       -8.01322285924757       -11.4866883013535     
 C   -9.60494927334683       -6.25872802984765        2.22226048221312     
 C    12.1704998250669        14.9815656460820        8.91512216826744     
 C   -4.81769411013606      -0.360502117742741       -15.4399750043151     
 C    11.6551731804631       -2.19071600417609       -7.40049998110360     
 C    10.4907817164595        14.0391414365877        13.9871095328067     
 C    9.99052817333904       -8.47724144381650        4.79001096007572     
 C   -10.7062330743654        8.78921723212843        13.8064594080757     
 C    8.83004841012744       -6.35472266436235       -8.19589102407274     
 C    15.5501672426939        5.65651990650604       -1.44497096151227     
 C  -0.387686855074867       -5.83633631802251       -12.2082646373389     
 C   0.296080542825042       -14.9779070561386        14.8570956626011     
 C    15.0670733797334        8.92205176092410       0.327797530767752     
 C    15.0092588002938        4.09594157568177        12.7647918311879     
 C   -7.97463031339671       -6.84949213250234        14.3284070480324     
 C    10.2781162051982       -4.07695247965842       -11.3155769420460     
 C    1.64914266671224       -8.35959667684253       0.285974946724146     
 C   -6.18834839016767       -7.42688876340912       -7.29952867994043     
 C    6.57711063205237        11.9026133190861       -12.8613044144636     
 C   -14.3078574906400       -2.26066686078285       -1.48085070870116     
 C    9.41248928393085       -10.1010860451554       -9.63150013026192     
 C   -3.75188865460059       -15.3408008853147       -4.04772273599977     
 C    13.7737446753726       -14.5387408506992        13.0087018889291     
 C   -6.94646887153293        14.8718063832509        14.0697604140630     
 C    8.76618828031913       -4.87187381964488        2.80003567152057     
 C   -10.5879850686070       -4.53747549291908        6.19587534222439     
 C    8.07690187733970       -10.0889513512210      -0.744779463080413     
 C   -8.50524561079822        7.00649821021052       -4.22005737720460     
 C  -0.980821395903646        9.27870345642053        10.0093582719920     
 C    8.82774367341227       -13.7402120702282       -10.1060504537283     
 C   -2.20558570276556       -10.4603957169660        4.55157898088164     
 C   -8.20278317866181        5.27532728557152       -8.32094145983603     
 C   -15.0482460822229       -8.06518892540485       -8.48100037692269     
 C    9.57613489350744       -7.99697730504388        9.02723495652304     
 C    12.8332642349433        5.69122593255393       -7.94952662407075     
 C   -2.32733995693276       -8.60349509200466       -9.15846144824756     
 C   -8.53689827195971       -14.0176556229117        2.86153509163598     
 C   0.618312567781158       -3.84950757841678        15.4462725330903     
 C    5.57055069113825       -12.3755525305842        10.1094453925841     
 C   -14.1024405340129      -0.735902034038274       -10.3279794139943     
 C   -4.89977447901383        8.59686041505479        12.5464141130342     
 C    9.20238237046586       -4.71374520384247        6.84364935987556     
 C    11.5462172681612       -12.3566564083467        10.8445123867455     
 C    13.5922927280672       0.775967905489559       -6.21222174859752     
 C   -3.25036302876648        4.26711119475299       -8.93307334055264     
 C    8.32261410768942       -1.40374720236483       -8.85092807691046     
 C   -10.7516174980702       -2.91529111457628       0.567533134394956     
 C   -8.02978938782751        11.8937337011575       0.678222559978003     
 C   -14.5702395206499        12.3390302311772        4.67672339883053     
 C    9.56304980923747        4.08700591102203      -0.315676274140755     
 C   -15.3121958452860        4.32718944023971       -5.77493333405080     
 C    15.0745527811484       -4.40776353016495       -9.76451089462601     
 C    2.50869681849062      -0.902502780567915       0.194282172056351     
 C   -8.83054037686594       -7.60548146943573        10.0637721530352     
 C    9.76455442623190       -13.1201037760027        14.6366810056686     
 C    6.77731422245589       -14.8060559780080       -7.16242163043695     
 C    8.97872262506722        2.05544353526004        2.72210420523189     
 C    6.05450825799943        12.4510576011151       -5.21237346942210     
 C   -1.66892255976829      -0.149606192389490       0.310589636302631     
 C   -3.50408204760551       -6.28221549658660       -1.48989583459361     
 C    4.41482907137789        10.8975424136825        10.8595306914843     
 C   0.387150644250250        9.87735724582319        5.97652919483878     
 C   -3.31690734902577       -4.84663009458843       -9.78903006882784     
 C   -6.55972138385696      -0.962924077724784        7.51086485681829     
 C   -5.23101145244162        5.29282454526252        11.0077708787135     
 C   -11.3893446094613       -8.10509456866551       -13.1140222736955     
 C    9.30990332513800       -13.8266808433139      -0.454463153412158     
 C   -9.37059085416637       -10.3869892833860        1.38140854362395     
 C    3.06195822574368        10.8308742069065       -10.9934462520485     
 C   -4.79279357314865        5.80005648136516       -15.5410284203287     
 C    12.6803684807566        11.4718873599711       -1.64721902629259     
 C    1.42319798997078       -9.47076351648730       -10.0095671458239     
 C   -2.47997381876081        6.85178801075450        7.10281461320055     
 C   -3.09869892259422       -11.8773154299925       -6.65496851282909     
 C    9.94079714163252       -8.85292868059730       -5.33478914740663     
 C   -6.36587810499034       -5.51560337941904       -3.82178343770130     
 C    13.5055096391691       -8.18643544869635        1.98627769761578     
 C    12.0531088029174       -1.30783203835093       -3.08838712303579     
 C    14.6308620851535       -14.4439461059767       -7.45716337242580     
 C   -12.7756664918668       -7.12668035325101       -4.99876062369852     
 C   -8.95579416799165       -1.77776948271852        13.9130868251069     
 C    8.75510630561360        1.43988465873478        12.1916842771476     
 C   -11.7256708555033        3.18903620673697       -7.70561625538821     
 C   -4.61956756156756        8.70945086729842       -4.18435224514908     
 C    7.96525647073486       -7.56404355507408       -12.0142410545808     
 C    8.44131268742485        8.19434989658950       -14.0736550788100     
 C   -2.93593228271121       0.132321667381657       -10.1052007509928     
 C   -9.10975481716596       -4.66969713809593       -6.70565116603100     
 C    6.39418304556445       -2.53898895219423        1.26153271490241     
 C   -11.2083195644900        14.7865684022022       -12.7386247157863     
 C   -10.9772246440019        7.15329846016290       -12.4127358157164     
 C   -7.41419839091802       -1.53372359056593       -3.98275799465174     
 C   -1.04624105457789       -6.63530365546640        3.03756739215865     
 C    13.1808641359329       -8.44210343165850        7.30066725566940     
 C   -5.43398638349397       -5.89938427823127       -13.4185832030053     
 C   -10.2484626927381       0.744572295560938       -10.8424961283386     
 C   -10.6517167696962        1.55657086013598        14.5674184430360     
 C   -4.51857478974500       -9.23606818438972       -3.50095042700489     
 C    10.5278426674960        14.3148666479470       -8.34688310867623     
 C   -10.8909541693752       -9.56641961688316        14.1231605943148     
 C   -3.35841177284429       -9.87736079772391       0.278719601790521     
 C   -14.5087408097148       -13.1550548975140       -3.43589197652625     
 C    12.3693567968322        1.10148348538054        4.18881853292999     
 C    11.2360046293685        8.54929896239098        4.75807243961078     
 C    10.0287135828803        14.5308401737365       -4.04994873757614     
 C   -9.53886087047147        12.7855351291320        3.80997060562989     
 C   0.434744705130560       -10.0580786408250       -6.40082396935829     
 C    13.3747674382931      -0.125298981088549       -10.5843025456422     
 C   -7.24676151224199        11.1142831192436       -6.67122094627522     
 C   -1.22482414419172       -1.61405958330210       -6.72652803080928     
 C    11.8208650653576       -8.33930731912861       -1.89988752933951     
 C   -10.3006210743717       -13.6883388049220       -3.40139756213679     
 C    5.75951971390767        12.8296354298482        7.84894496519334     
 C    11.4807953538575        4.46769778861001        10.1506641025989     
 C   -11.5463097753063       -5.50518934004250        13.3410639578920     
 C   -5.37042801500939        14.7434020843468        1.54450749833795     
 C   -7.49615646072476       -2.63237053660453        3.80909197141884     
 C   -14.8412654160874       -3.29112165952437        6.67200065707615     
 C   -4.43845496125523       0.477626943793801       -5.94763543046936     
 C    1.10314620598316       -5.37806466994893       -7.54233922833989     
 C    4.92593054504518       -3.98519176877772       -9.00957372592703     
 C   -5.54767673162561      -0.651018918792632        1.25271038785783     
 C    13.4037682151528        11.6713678501644        2.49268173871550     
 C   -9.08603752091037        6.13082353796448        9.82939308323335     
 C    9.60163095014694       -1.80414646310545        9.82163521146752     
 C   0.172829046145488       -3.75709772999425       -3.81669474426813     
 C    6.86853444319716       -3.36767339372618       -13.2472424726100     
 C    15.2815526865401       -10.3840692701890      -0.847824702489906     
 C   -5.28844838593112       -13.6233835945641       -14.4503486153076     
 C    8.98511484948323        6.34490661488168        7.41851353038072     
 C  -0.869274749933045        5.09723505121944        10.6517637817623     
 C    12.3789974180946        11.3125658983270       -6.10852595952005     
 C    5.93050470253379       -14.6359287467854        13.0792030011909     
 C    4.86331187323291       0.308586408410467        3.37157311031217     
 C   -14.4736183802083       -7.45676843645646        7.72875636574346     
 C   -2.79287012916698       -5.15668630566642       -6.04544230980915     
 C   -13.2980787639914      -0.291860843747088       -5.52901098142233     
 C   -6.66311702098066        13.3446032900594       -2.81394228837721     
 C    14.4481673891746        9.45882894593062       -8.89843230869093     
 C  -1.007289803497374E-003  -2.86613109673132       -10.1755436380285     
 C   -15.2711102997135        11.2794443828154        8.44023968659996     
 C   -5.72440770787606       -10.6472905503262        13.9575071579656     
 C   -11.7069638491478       -11.3638841084465       -10.6040072599679     
 C    10.2591394504666        10.6023650085412       -9.13585591634212     
 C    3.14643205398961        5.64979074409512       -3.95976271530027     
 C   -10.7553853428206       -3.09268824419791       -3.67292818459351     
 C    9.63169207331402       -5.68417710696910       -14.5959353124511     
 C   0.998777952012451        9.94991835118920        13.0744951556530     
 C    2.33924490681501       -8.12581420015438        4.52895287286979     
 C    14.4827833325450       -13.3987181140475       -10.8405824799251     
 C    6.93598716124901       -12.3834256012444       -13.4040575058112     
 C    2.02559841854096        10.4190644624572       -7.32832064111329     
 C   -9.87868466547514        5.48306656370125      -0.945904805312368     
 C    6.48118862386034       -8.28645129539015        15.4450643233281     
 C    8.88687800489952       0.821039984571361       -3.84485910431035     
 C    11.6199222185635       -11.6952568700949       -12.4800717967610     
 C  -0.743345435550859       0.818540419359069       -14.3384968699617     
 C    2.39997833225257       -13.7008629702696       -5.48375420443404     
 C    15.1760812857249        14.3002477147103       4.296239068303870E-002
 C    12.5463937832748       -5.38808000834758        4.68360022890679     
 C   -12.7986273738237        15.4117090536141        13.8865905004804     
 C   0.753301744368042       -13.5895616945370        5.78006668658041     
 C   -11.0285306305736       -7.92134269115089       -8.41330690982353     
 C    11.9455163333682       -6.47577339885833        13.2241280550495     
 C    13.1702036457392       -10.6382767998936       -8.46130053718745     
 C    1.69935797625714      -0.448486918014211        14.4424003461480     
 C    12.1909221751261        5.02425754035580        5.88089215025651     
 C    3.60174627675355       -3.02511568652979       -5.29471256417962     
 C    6.23472531399049        10.3935353979389        1.16355834395100     
 C    5.21931294935768       -3.15638999234675        5.50375345437755     
 C   -3.92873382264010        2.89066541781861        7.86791609695480     
 C    2.68709018631695        12.3474799815340        1.10823482868858     
 C   -6.83975320356507        1.67388644665486       -9.22256345425889     
 C    9.94683177567931       -9.49701475839089       -15.3923091559204     
 C    5.86354492270327        15.2963549307358       -14.0929021616373     
 C   -11.4203406071369        7.37353884305053        6.18811911773262     
 C   -11.0911841830904        4.24544626651188        3.51806203536881     
 C   -1.64825978278066        5.17905896414278       -1.02360682012522     
 C  -0.119319184187585        15.2935806166035       -3.25399163701637     
 C   -8.63645246295973       -9.05758854686799       -4.96642383108296     
 C   -12.4210740781863        4.62486561380509        11.1141204565177     
 C   -1.67937342513397        9.88851615875070       -11.7260511371734     
 C   -12.2785168568674        3.49134463393200       -12.1427349536443     
 C   -5.85685596617968       -2.70685850849758       -7.37721336395994     
 C    1.43064002619739       0.134245419249071        5.53243364901234     
 C   -9.59037521428076       -9.10916638935273        6.37753483047110     
 C   -8.11563551768785       -7.02092835152564       -10.4858796942962     
 C   1.750440514682582E-002  -11.9413741958540        1.80740329225478     
 C    4.27694629755211       -12.2058777505357       -9.06657479394228     
 C    6.82920588003254       -10.6625414172039        3.80125160460973     
 C    6.40869320317708        8.66919304507185       -4.88861592565173     
 C    8.80701536994294        15.2455066810741        6.55396132462094     
 C   -10.4877258866937        8.84230447346421        2.71279164396088     
 C    14.6969850837533       -4.11510994880569       0.792711768977002     
 C    10.8436176125286        2.32192600005426       -8.01023516197206     
 C   -12.5404708099075        5.02980636260421        15.4976951242358     
 C   -6.71392454667605       -7.75889298004728      -0.612237689012804     
 C   -9.74553437783449        14.0823414695727       -5.77328419403276     
 C   -3.11099519201668        11.1960262141322       -8.25663117441291     
 C    15.2200186718935        2.73818551714547       -13.5498873121951     
 C   -3.56406600648976       -1.15701680552604        4.56309916774382     
 C    11.0084968315777       -5.26084146245700       -4.25095709257062     
 C   -13.4295383147467        1.39099847000780       0.934609252265729     
 C    10.4298556891530        13.4644342655746        1.19810555720096     
 C    4.64258493924568       -10.1039282469747       -2.57443986713958     
 C    12.2978415444402        8.19652585588527        8.75586732159163     
 C    5.64887172191959       -14.0260802203510       0.244963640064371     
 C   -7.98096805154080       -12.0123314728274        10.6778322278727     
 C    10.6319621557339        7.79040488948528       -5.91788447223185     
 C    6.63969499660407       -7.16982467445853        6.02221272448472     
 C    15.1706293290512        2.85414362029067       -9.51270959909571     
 C   -8.04826430533993        10.2599847951822        10.7958908635745     
 C    2.69750964426350        13.4249001257575       -3.49120696381237     
 C   -9.92511548655279        12.3888214206876       -9.40803393106007     
 C   -13.2607896592333        6.81118924298606       -8.44441598816068     
 C   -13.7123988582610       -6.67238367458617       0.249509776125363     
 C   -8.09331710656036        4.45369655111016       -13.2919152270592     
 C    13.1555928856138        6.16467466186690        2.24663386438502     
 C   -9.26431820056300       -12.8187914355732        15.3828464625391     
 C  -0.941311543446518        14.7636368431353       0.770565432697164     
 C    2.84004279990091       0.817700649958950       -4.65336803510635     
 C    9.65782643087504       0.134357095438203       -13.0613034750447     
 C    3.46101777112805       -11.6487019902034        14.4691864871379     
 C   -2.87226865739644       -2.79457543766680       -13.1089248505003     
 C   -12.6924851623959       -11.2173502736619       -6.42800809120291     
 C   -14.6405025690723       -1.67433159776446        3.10646106298066     
 C    12.5837343848944        12.8038746454698       -11.0421612698538     
 C    6.33761754367362       -14.3165042942211       -3.48680094341907     
 C    12.6669437190471       -1.36836245244110        7.51278585892006     
 C  -0.773266065257491       -8.12955706359968        11.0944258834807     
 C    3.50376977500286       -4.88509799485420       -1.02654222653848     
 C   -10.2135026565921        8.63451443929771       -8.15541357855459     
 C    8.87125574187682        5.69202735675842        3.99199742763703     
 C    8.05388801306066        5.12830953587105       -4.14942585728068     
 C    11.8879226356078       -12.3250502185181        6.73053827094191     
 C   -1.07038210531664       -1.73007761904850        11.4153958026746     
 C   -13.2860282291117       0.709158101162942        11.2884867908278     
 C   0.811372517628880        12.9579568610059        10.5378816475918     
 C  -3.741017065421653E-002   13.4343114432403       -10.5538698462692     
 C   -14.3528435721463       -8.23651944421961        15.2539492030585     
 C    8.19402290939064        8.08774164074585        11.3411709538905     
 C   -1.22994567474358        1.27427795978929       -3.39702201543382     
 C   -4.27487852153931       -4.25697515721350        14.2292609592306     
 C   -7.39099448757281        5.15165366786141        6.03391235813152     
 C   -3.27971353164329       -4.63682842214663        10.6117176193432     
 C   -8.03499451264882        2.41789193621597        1.24326219058335     
 C    12.3837625768077        11.7542623688479        11.7190479910369     
 C    2.19284890797503       -13.3644470580994       -1.37947001851384     
 C    8.15355787801619       -5.90846522406074        12.2970150993212     
 C   -8.92313163276687        5.55269382272109        13.6014526886640     
 C   -6.89674194475027        11.2365154281325        14.9220741141423     
 C   -12.9214981218198       -10.0258396620689        2.95788533541602     
 C   -1.68132779058124       -11.2830214736648        14.9235736528694     
 C    7.28113166795515        7.67146209545754       -1.16558307290184     
 C    8.28856712937268       -10.2926081165142        11.9736740736031     
 C    10.2071698676129       -12.9623054255379       -6.66467113698555     
 C    11.6669381659515       -1.90453520495071       0.872302968210082     
 C    2.32518165209963        2.89119871054937       -1.38540938383988     
 C   -1.32678746762584        10.8151506435777        2.60425819478505     
 C    5.78235718831569       -8.57677986931333       -8.89386008305808     
 C   -13.0776287436544        12.1982222375399        1.31462888687694     
 C   -11.7533792020045       -9.89056874888235       -2.60881781847476     
 C   -8.41448304470957       -10.8016575191769       -8.37443932732658     
 C   -3.93427462720180        12.0224573295375      -0.305158912471368     
 C   -13.3535880930195       -6.17324022439840        3.95738513733814     
 C   -11.8040667447439       -14.6356584432668       -8.85254110747430     
 C  -0.486318705970544        7.34907432157598       -4.29244081092978     
 C    12.6395033099816        8.01404504789381       -11.5285027976991     
 C   -6.84938207998484       -3.85809986773491      -0.128657092472745     
 C   -14.7798993054611        15.1956906345412        10.1260239818881     
 C   -12.0853279456706       -12.7855656821819      -7.703904907712342E-002
 C    7.36053318227952        2.62255504302802       -9.87478805957791     
 C   -9.81091166212343       -6.13824960038631       -1.85554231220903     
 C    15.2040687475844       -11.8760942675704        8.90205224495571     
 C    1.85520653074269        2.68570289830399        2.42097116414882     
 C   -1.29796755158937        7.02383044928355        13.8062121539408     
 C   -7.75619945580221        7.93872458810587       -14.8700842907162     
 C   -9.96117045556872        12.5382172975027        13.6869289734186     
 C   -7.07246117263808       -11.9930735561963       -1.70511177259609     
 C    7.66504416655684       -11.2123292958231        7.23994774677524     
 C   -13.7596179674946        11.6236350059867        11.9453687872695     
 C    15.1376913083819       -5.67475606701246       -2.71730622801763     
 C    12.5834000979608       -6.39821532221696       -7.14741711992991     
 C    5.89972910234332        4.00100782664477        5.98385905425625     
 C    12.4378328855458       -2.84271307409709       -14.5585360831938     
 C   -3.10868464700771        1.82730327740136        12.5417253873469     
 C   -5.35641349387785       -11.6712472925025        3.22253203042027     
 C   -8.92178594289942      -0.545797323320706       -7.31062686189370     
 C    4.53510080517657        11.6342724115966        4.55370701928665     
 C   -5.30318031078092       -1.54173362318425        11.6342299899226     
 C    15.1269221293391        8.73260825688772        4.94938818390624     
