720
 generated by VMD
 C         0.000000        0.000000       -8.275000
 C        -1.228000        0.709001       -8.275000
 C        -1.228000        2.127000       -8.275000
 C         0.000000        2.836000       -8.275000
 C         2.456000        0.000000       -8.275000
 C         1.228000        0.709001       -8.275000
 C         1.228000        2.127000       -8.275000
 C         2.456000        2.836000       -8.275000
 C         4.912000        0.000000       -8.275000
 C         3.684000        0.709001       -8.275000
 C         3.684000        2.127000       -8.275000
 C         4.912000        2.836000       -8.275000
 C         7.367999        0.000000       -8.275000
 C         6.140000        0.709001       -8.275000
 C         6.140000        2.127000       -8.275000
 C         7.367999        2.836000       -8.275000
 C         9.824000        0.000000       -8.275000
 C         8.596000        0.709001       -8.275000
 C         8.596000        2.127000       -8.275000
 C         9.824000        2.836000       -8.275000
 C       -10.014001        0.000000       -8.275000
 C        11.051999        0.709001       -8.275000
 C        11.051999        2.127000       -8.275000
 C       -10.014001        2.836000       -8.275000
 C        -7.558001        0.000000       -8.275000
 C        -8.786001        0.709001       -8.275000
 C        -8.786001        2.127000       -8.275000
 C        -7.558001        2.836000       -8.275000
 C        -5.102001        0.000000       -8.275000
 C        -6.330001        0.709001       -8.275000
 C        -6.330001        2.127000       -8.275000
 C        -5.102001        2.836000       -8.275000
 C        -2.646001        0.000000       -8.275000
 C        -3.874001        0.709001       -8.275000
 C        -3.874001        2.127000       -8.275000
 C        -2.646001        2.836000       -8.275000
 C         0.000000        4.254001       -8.275000
 C        -1.228000        4.963000       -8.275000
 C        -1.228000        6.381000       -8.275000
 C         0.000000        7.089999       -8.275000
 C         2.456000        4.254001       -8.275000
 C         1.228000        4.963000       -8.275000
 C         1.228000        6.381000       -8.275000
 C         2.456000        7.089999       -8.275000
 C         4.912000        4.254001       -8.275000
 C         3.684000        4.963000       -8.275000
 C         3.684000        6.381000       -8.275000
 C         4.912000        7.089999       -8.275000
 C         7.367999        4.254001       -8.275000
 C         6.140000        4.963000       -8.275000
 C         6.140000        6.381000       -8.275000
 C         7.367999        7.089999       -8.275000
 C         9.824000        4.254001       -8.275000
 C         8.596000        4.963000       -8.275000
 C         8.596000        6.381000       -8.275000
 C         9.824000        7.089999       -8.275000
 C       -10.014001        4.254001       -8.275000
 C        11.051999        4.963000       -8.275000
 C        11.051999        6.381000       -8.275000
 C       -10.014001        7.089999       -8.275000
 C        -7.558001        4.254001       -8.275000
 C        -8.786001        4.963000       -8.275000
 C        -8.786001        6.381000       -8.275000
 C        -7.558001        7.089999       -8.275000
 C        -5.102001        4.254001       -8.275000
 C        -6.330001        4.963000       -8.275000
 C        -6.330001        6.381000       -8.275000
 C        -5.102001        7.089999       -8.275000
 C        -2.646001        4.254001       -8.275000
 C        -3.874001        4.963000       -8.275000
 C        -3.874001        6.381000       -8.275000
 C        -2.646001        7.089999       -8.275000
 C         0.000000        8.508000       -8.275000
 C        -1.228000        9.217000       -8.275000
 C        -1.228000       10.634999       -8.275000
 C         0.000000       -9.926000       -8.275000
 C         2.456000        8.508000       -8.275000
 C         1.228000        9.217000       -8.275000
 C         1.228000       10.634999       -8.275000
 C         2.456000       -9.926000       -8.275000
 C         4.912000        8.508000       -8.275000
 C         3.684000        9.217000       -8.275000
 C         3.684000       10.634999       -8.275000
 C         4.912000       -9.926000       -8.275000
 C         7.367999        8.508000       -8.275000
 C         6.140000        9.217000       -8.275000
 C         6.140000       10.634999       -8.275000
 C         7.367999       -9.926000       -8.275000
 C         9.824000        8.508000       -8.275000
 C         8.596000        9.217000       -8.275000
 C         8.596000       10.634999       -8.275000
 C         9.824000       -9.926000       -8.275000
 C       -10.014001        8.508000       -8.275000
 C        11.051999        9.217000       -8.275000
 C        11.051999       10.634999       -8.275000
 C       -10.014001       -9.926000       -8.275000
 C        -7.558001        8.508000       -8.275000
 C        -8.786001        9.217000       -8.275000
 C        -8.786001       10.634999       -8.275000
 C        -7.558001       -9.926000       -8.275000
 C        -5.102001        8.508000       -8.275000
 C        -6.330001        9.217000       -8.275000
 C        -6.330001       10.634999       -8.275000
 C        -5.102001       -9.926000       -8.275000
 C        -2.646001        8.508000       -8.275000
 C        -3.874001        9.217000       -8.275000
 C        -3.874001       10.634999       -8.275000
 C        -2.646001       -9.926000       -8.275000
 C         0.000000       -8.508001       -8.275000
 C        -1.228000       -7.799002       -8.275000
 C        -1.228000       -6.381001       -8.275000
 C         0.000000       -5.672001       -8.275000
 C         2.456000       -8.508001       -8.275000
 C         1.228000       -7.799002       -8.275000
 C         1.228000       -6.381001       -8.275000
 C         2.456000       -5.672001       -8.275000
 C         4.912000       -8.508001       -8.275000
 C         3.684000       -7.799002       -8.275000
 C         3.684000       -6.381001       -8.275000
 C         4.912000       -5.672001       -8.275000
 C         7.367999       -8.508001       -8.275000
 C         6.140000       -7.799002       -8.275000
 C         6.140000       -6.381001       -8.275000
 C         7.367999       -5.672001       -8.275000
 C         9.824000       -8.508001       -8.275000
 C         8.596000       -7.799002       -8.275000
 C         8.596000       -6.381001       -8.275000
 C         9.824000       -5.672001       -8.275000
 C       -10.014001       -8.508001       -8.275000
 C        11.051999       -7.799002       -8.275000
 C        11.051999       -6.381001       -8.275000
 C       -10.014001       -5.672001       -8.275000
 C        -7.558001       -8.508001       -8.275000
 C        -8.786001       -7.799002       -8.275000
 C        -8.786001       -6.381001       -8.275000
 C        -7.558001       -5.672001       -8.275000
 C        -5.102001       -8.508001       -8.275000
 C        -6.330001       -7.799002       -8.275000
 C        -6.330001       -6.381001       -8.275000
 C        -5.102001       -5.672001       -8.275000
 C        -2.646001       -8.508001       -8.275000
 C        -3.874001       -7.799002       -8.275000
 C        -3.874001       -6.381001       -8.275000
 C        -2.646001       -5.672001       -8.275000
 C         0.000000       -4.254000       -8.275000
 C        -1.228000       -3.545001       -8.275000
 C        -1.228000       -2.127002       -8.275000
 C         0.000000       -1.418003       -8.275000
 C         2.456000       -4.254000       -8.275000
 C         1.228000       -3.545001       -8.275000
 C         1.228000       -2.127002       -8.275000
 C         2.456000       -1.418003       -8.275000
 C         4.912000       -4.254000       -8.275000
 C         3.684000       -3.545001       -8.275000
 C         3.684000       -2.127002       -8.275000
 C         4.912000       -1.418003       -8.275000
 C         7.367999       -4.254000       -8.275000
 C         6.140000       -3.545001       -8.275000
 C         6.140000       -2.127002       -8.275000
 C         7.367999       -1.418003       -8.275000
 C         9.824000       -4.254000       -8.275000
 C         8.596000       -3.545001       -8.275000
 C         8.596000       -2.127002       -8.275000
 C         9.824000       -1.418003       -8.275000
 C       -10.014001       -4.254000       -8.275000
 C        11.051999       -3.545001       -8.275000
 C        11.051999       -2.127002       -8.275000
 C       -10.014001       -1.418003       -8.275000
 C        -7.558001       -4.254000       -8.275000
 C        -8.786001       -3.545001       -8.275000
 C        -8.786001       -2.127002       -8.275000
 C        -7.558001       -1.418003       -8.275000
 C        -5.102001       -4.254000       -8.275000
 C        -6.330001       -3.545001       -8.275000
 C        -6.330001       -2.127002       -8.275000
 C        -5.102001       -1.418003       -8.275000
 C        -2.646001       -4.254000       -8.275000
 C        -3.874001       -3.545001       -8.275000
 C        -3.874001       -2.127002       -8.275000
 C        -2.646001       -1.418003       -8.275000
 C         0.000000        1.417999       -4.925001
 C        -1.228000        2.127000       -4.925001
 C        -1.228000        3.545000       -4.925001
 C         0.000000        4.254001       -4.925001
 C         2.456000        1.417999       -4.925001
 C         1.228000        2.127000       -4.925001
 C         1.228000        3.545000       -4.925001
 C         2.456000        4.254001       -4.925001
 C         4.912000        1.417999       -4.925001
 C         3.684000        2.127000       -4.925001
 C         3.684000        3.545000       -4.925001
 C         4.912000        4.254001       -4.925001
 C         7.367999        1.417999       -4.925001
 C         6.140000        2.127000       -4.925001
 C         6.140000        3.545000       -4.925001
 C         7.367999        4.254001       -4.925001
 C         9.824000        1.417999       -4.925001
 C         8.596000        2.127000       -4.925001
 C         8.596000        3.545000       -4.925001
 C         9.824000        4.254001       -4.925001
 C       -10.014001        1.417999       -4.925001
 C        11.051999        2.127000       -4.925001
 C        11.051999        3.545000       -4.925001
 C       -10.014001        4.254001       -4.925001
 C        -7.558001        1.417999       -4.925001
 C        -8.786001        2.127000       -4.925001
 C        -8.786001        3.545000       -4.925001
 C        -7.558001        4.254001       -4.925001
 C        -5.102001        1.417999       -4.925001
 C        -6.330001        2.127000       -4.925001
 C        -6.330001        3.545000       -4.925001
 C        -5.102001        4.254001       -4.925001
 C        -2.646001        1.417999       -4.925001
 C        -3.874001        2.127000       -4.925001
 C        -3.874001        3.545000       -4.925001
 C        -2.646001        4.254001       -4.925001
 C         0.000000        5.672000       -4.925001
 C        -1.228000        6.381000       -4.925001
 C        -1.228000        7.799001       -4.925001
 C         0.000000        8.508000       -4.925001
 C         2.456000        5.672000       -4.925001
 C         1.228000        6.381000       -4.925001
 C         1.228000        7.799001       -4.925001
 C         2.456000        8.508000       -4.925001
 C         4.912000        5.672000       -4.925001
 C         3.684000        6.381000       -4.925001
 C         3.684000        7.799001       -4.925001
 C         4.912000        8.508000       -4.925001
 C         7.367999        5.672000       -4.925001
 C         6.140000        6.381000       -4.925001
 C         6.140000        7.799001       -4.925001
 C         7.367999        8.508000       -4.925001
 C         9.824000        5.672000       -4.925001
 C         8.596000        6.381000       -4.925001
 C         8.596000        7.799001       -4.925001
 C         9.824000        8.508000       -4.925001
 C       -10.014001        5.672000       -4.925001
 C        11.051999        6.381000       -4.925001
 C        11.051999        7.799001       -4.925001
 C       -10.014001        8.508000       -4.925001
 C        -7.558001        5.672000       -4.925001
 C        -8.786001        6.381000       -4.925001
 C        -8.786001        7.799001       -4.925001
 C        -7.558001        8.508000       -4.925001
 C        -5.102001        5.672000       -4.925001
 C        -6.330001        6.381000       -4.925001
 C        -6.330001        7.799001       -4.925001
 C        -5.102001        8.508000       -4.925001
 C        -2.646001        5.672000       -4.925001
 C        -3.874001        6.381000       -4.925001
 C        -3.874001        7.799001       -4.925001
 C        -2.646001        8.508000       -4.925001
 C         0.000000        9.926000       -4.925001
 C        -1.228000       10.634999       -4.925001
 C        -1.228000       -9.217001       -4.925001
 C         0.000000       -8.508001       -4.925001
 C         2.456000        9.926000       -4.925001
 C         1.228000       10.634999       -4.925001
 C         1.228000       -9.217001       -4.925001
 C         2.456000       -8.508001       -4.925001
 C         4.912000        9.926000       -4.925001
 C         3.684000       10.634999       -4.925001
 C         3.684000       -9.217001       -4.925001
 C         4.912000       -8.508001       -4.925001
 C         7.367999        9.926000       -4.925001
 C         6.140000       10.634999       -4.925001
 C         6.140000       -9.217001       -4.925001
 C         7.367999       -8.508001       -4.925001
 C         9.824000        9.926000       -4.925001
 C         8.596000       10.634999       -4.925001
 C         8.596000       -9.217001       -4.925001
 C         9.824000       -8.508001       -4.925001
 C       -10.014001        9.926000       -4.925001
 C        11.051999       10.634999       -4.925001
 C        11.051999       -9.217001       -4.925001
 C       -10.014001       -8.508001       -4.925001
 C        -7.558001        9.926000       -4.925001
 C        -8.786001       10.634999       -4.925001
 C        -8.786001       -9.217001       -4.925001
 C        -7.558001       -8.508001       -4.925001
 C        -5.102001        9.926000       -4.925001
 C        -6.330001       10.634999       -4.925001
 C        -6.330001       -9.217001       -4.925001
 C        -5.102001       -8.508001       -4.925001
 C        -2.646001        9.926000       -4.925001
 C        -3.874001       10.634999       -4.925001
 C        -3.874001       -9.217001       -4.925001
 C        -2.646001       -8.508001       -4.925001
 C         0.000000       -7.090000       -4.925001
 C        -1.228000       -6.381001       -4.925001
 C        -1.228000       -4.963002       -4.925001
 C         0.000000       -4.254000       -4.925001
 C         2.456000       -7.090000       -4.925001
 C         1.228000       -6.381001       -4.925001
 C         1.228000       -4.963002       -4.925001
 C         2.456000       -4.254000       -4.925001
 C         4.912000       -7.090000       -4.925001
 C         3.684000       -6.381001       -4.925001
 C         3.684000       -4.963002       -4.925001
 C         4.912000       -4.254000       -4.925001
 C         7.367999       -7.090000       -4.925001
 C         6.140000       -6.381001       -4.925001
 C         6.140000       -4.963002       -4.925001
 C         7.367999       -4.254000       -4.925001
 C         9.824000       -7.090000       -4.925001
 C         8.596000       -6.381001       -4.925001
 C         8.596000       -4.963002       -4.925001
 C         9.824000       -4.254000       -4.925001
 C       -10.014001       -7.090000       -4.925001
 C        11.051999       -6.381001       -4.925001
 C        11.051999       -4.963002       -4.925001
 C       -10.014001       -4.254000       -4.925001
 C        -7.558001       -7.090000       -4.925001
 C        -8.786001       -6.381001       -4.925001
 C        -8.786001       -4.963002       -4.925001
 C        -7.558001       -4.254000       -4.925001
 C        -5.102001       -7.090000       -4.925001
 C        -6.330001       -6.381001       -4.925001
 C        -6.330001       -4.963002       -4.925001
 C        -5.102001       -4.254000       -4.925001
 C        -2.646001       -7.090000       -4.925001
 C        -3.874001       -6.381001       -4.925001
 C        -3.874001       -4.963002       -4.925001
 C        -2.646001       -4.254000       -4.925001
 C         0.000000       -2.836001       -4.925001
 C        -1.228000       -2.127002       -4.925001
 C        -1.228000       -0.709001       -4.925001
 C         0.000000       -0.000002       -4.925001
 C         2.456000       -2.836001       -4.925001
 C         1.228000       -2.127002       -4.925001
 C         1.228000       -0.709001       -4.925001
 C         2.456000       -0.000002       -4.925001
 C         4.912000       -2.836001       -4.925001
 C         3.684000       -2.127002       -4.925001
 C         3.684000       -0.709001       -4.925001
 C         4.912000       -0.000002       -4.925001
 C         7.367999       -2.836001       -4.925001
 C         6.140000       -2.127002       -4.925001
 C         6.140000       -0.709001       -4.925001
 C         7.367999       -0.000002       -4.925001
 C         9.824000       -2.836001       -4.925001
 C         8.596000       -2.127002       -4.925001
 C         8.596000       -0.709001       -4.925001
 C         9.824000       -0.000002       -4.925001
 C       -10.014001       -2.836001       -4.925001
 C        11.051999       -2.127002       -4.925001
 C        11.051999       -0.709001       -4.925001
 C       -10.014001       -0.000002       -4.925001
 C        -7.558001       -2.836001       -4.925001
 C        -8.786001       -2.127002       -4.925001
 C        -8.786001       -0.709001       -4.925001
 C        -7.558001       -0.000002       -4.925001
 C        -5.102001       -2.836001       -4.925001
 C        -6.330001       -2.127002       -4.925001
 C        -6.330001       -0.709001       -4.925001
 C        -5.102001       -0.000002       -4.925001
 C        -2.646001       -2.836001       -4.925001
 C        -3.874001       -2.127002       -4.925001
 C        -3.874001       -0.709001       -4.925001
 C        -2.646001       -0.000002       -4.925001
 C         0.000000        0.000000        4.924999
 C        -1.228000        0.709001        4.924999
 C        -1.228000        2.127000        4.924999
 C         0.000000        2.836000        4.924999
 C         2.456000        0.000000        4.924999
 C         1.228000        0.709001        4.924999
 C         1.228000        2.127000        4.924999
 C         2.456000        2.836000        4.924999
 C         4.912000        0.000000        4.924999
 C         3.684000        0.709001        4.924999
 C         3.684000        2.127000        4.924999
 C         4.912000        2.836000        4.924999
 C         7.367999        0.000000        4.924999
 C         6.140000        0.709001        4.924999
 C         6.140000        2.127000        4.924999
 C         7.367999        2.836000        4.924999
 C         9.824000        0.000000        4.924999
 C         8.596000        0.709001        4.924999
 C         8.596000        2.127000        4.924999
 C         9.824000        2.836000        4.924999
 C       -10.014001        0.000000        4.924999
 C        11.051999        0.709001        4.924999
 C        11.051999        2.127000        4.924999
 C       -10.014001        2.836000        4.924999
 C        -7.558001        0.000000        4.924999
 C        -8.786001        0.709001        4.924999
 C        -8.786001        2.127000        4.924999
 C        -7.558001        2.836000        4.924999
 C        -5.102001        0.000000        4.924999
 C        -6.330001        0.709001        4.924999
 C        -6.330001        2.127000        4.924999
 C        -5.102001        2.836000        4.924999
 C        -2.646001        0.000000        4.924999
 C        -3.874001        0.709001        4.924999
 C        -3.874001        2.127000        4.924999
 C        -2.646001        2.836000        4.924999
 C         0.000000        4.254001        4.924999
 C        -1.228000        4.963000        4.924999
 C        -1.228000        6.381000        4.924999
 C         0.000000        7.089999        4.924999
 C         2.456000        4.254001        4.924999
 C         1.228000        4.963000        4.924999
 C         1.228000        6.381000        4.924999
 C         2.456000        7.089999        4.924999
 C         4.912000        4.254001        4.924999
 C         3.684000        4.963000        4.924999
 C         3.684000        6.381000        4.924999
 C         4.912000        7.089999        4.924999
 C         7.367999        4.254001        4.924999
 C         6.140000        4.963000        4.924999
 C         6.140000        6.381000        4.924999
 C         7.367999        7.089999        4.924999
 C         9.824000        4.254001        4.924999
 C         8.596000        4.963000        4.924999
 C         8.596000        6.381000        4.924999
 C         9.824000        7.089999        4.924999
 C       -10.014001        4.254001        4.924999
 C        11.051999        4.963000        4.924999
 C        11.051999        6.381000        4.924999
 C       -10.014001        7.089999        4.924999
 C        -7.558001        4.254001        4.924999
 C        -8.786001        4.963000        4.924999
 C        -8.786001        6.381000        4.924999
 C        -7.558001        7.089999        4.924999
 C        -5.102001        4.254001        4.924999
 C        -6.330001        4.963000        4.924999
 C        -6.330001        6.381000        4.924999
 C        -5.102001        7.089999        4.924999
 C        -2.646001        4.254001        4.924999
 C        -3.874001        4.963000        4.924999
 C        -3.874001        6.381000        4.924999
 C        -2.646001        7.089999        4.924999
 C         0.000000        8.508000        4.924999
 C        -1.228000        9.217000        4.924999
 C        -1.228000       10.634999        4.924999
 C         0.000000       -9.926000        4.924999
 C         2.456000        8.508000        4.924999
 C         1.228000        9.217000        4.924999
 C         1.228000       10.634999        4.924999
 C         2.456000       -9.926000        4.924999
 C         4.912000        8.508000        4.924999
 C         3.684000        9.217000        4.924999
 C         3.684000       10.634999        4.924999
 C         4.912000       -9.926000        4.924999
 C         7.367999        8.508000        4.924999
 C         6.140000        9.217000        4.924999
 C         6.140000       10.634999        4.924999
 C         7.367999       -9.926000        4.924999
 C         9.824000        8.508000        4.924999
 C         8.596000        9.217000        4.924999
 C         8.596000       10.634999        4.924999
 C         9.824000       -9.926000        4.924999
 C       -10.014001        8.508000        4.924999
 C        11.051999        9.217000        4.924999
 C        11.051999       10.634999        4.924999
 C       -10.014001       -9.926000        4.924999
 C        -7.558001        8.508000        4.924999
 C        -8.786001        9.217000        4.924999
 C        -8.786001       10.634999        4.924999
 C        -7.558001       -9.926000        4.924999
 C        -5.102001        8.508000        4.924999
 C        -6.330001        9.217000        4.924999
 C        -6.330001       10.634999        4.924999
 C        -5.102001       -9.926000        4.924999
 C        -2.646001        8.508000        4.924999
 C        -3.874001        9.217000        4.924999
 C        -3.874001       10.634999        4.924999
 C        -2.646001       -9.926000        4.924999
 C         0.000000       -8.508001        4.924999
 C        -1.228000       -7.799002        4.924999
 C        -1.228000       -6.381001        4.924999
 C         0.000000       -5.672001        4.924999
 C         2.456000       -8.508001        4.924999
 C         1.228000       -7.799002        4.924999
 C         1.228000       -6.381001        4.924999
 C         2.456000       -5.672001        4.924999
 C         4.912000       -8.508001        4.924999
 C         3.684000       -7.799002        4.924999
 C         3.684000       -6.381001        4.924999
 C         4.912000       -5.672001        4.924999
 C         7.367999       -8.508001        4.924999
 C         6.140000       -7.799002        4.924999
 C         6.140000       -6.381001        4.924999
 C         7.367999       -5.672001        4.924999
 C         9.824000       -8.508001        4.924999
 C         8.596000       -7.799002        4.924999
 C         8.596000       -6.381001        4.924999
 C         9.824000       -5.672001        4.924999
 C       -10.014001       -8.508001        4.924999
 C        11.051999       -7.799002        4.924999
 C        11.051999       -6.381001        4.924999
 C       -10.014001       -5.672001        4.924999
 C        -7.558001       -8.508001        4.924999
 C        -8.786001       -7.799002        4.924999
 C        -8.786001       -6.381001        4.924999
 C        -7.558001       -5.672001        4.924999
 C        -5.102001       -8.508001        4.924999
 C        -6.330001       -7.799002        4.924999
 C        -6.330001       -6.381001        4.924999
 C        -5.102001       -5.672001        4.924999
 C        -2.646001       -8.508001        4.924999
 C        -3.874001       -7.799002        4.924999
 C        -3.874001       -6.381001        4.924999
 C        -2.646001       -5.672001        4.924999
 C         0.000000       -4.254000        4.924999
 C        -1.228000       -3.545001        4.924999
 C        -1.228000       -2.127002        4.924999
 C         0.000000       -1.418003        4.924999
 C         2.456000       -4.254000        4.924999
 C         1.228000       -3.545001        4.924999
 C         1.228000       -2.127002        4.924999
 C         2.456000       -1.418003        4.924999
 C         4.912000       -4.254000        4.924999
 C         3.684000       -3.545001        4.924999
 C         3.684000       -2.127002        4.924999
 C         4.912000       -1.418003        4.924999
 C         7.367999       -4.254000        4.924999
 C         6.140000       -3.545001        4.924999
 C         6.140000       -2.127002        4.924999
 C         7.367999       -1.418003        4.924999
 C         9.824000       -4.254000        4.924999
 C         8.596000       -3.545001        4.924999
 C         8.596000       -2.127002        4.924999
 C         9.824000       -1.418003        4.924999
 C       -10.014001       -4.254000        4.924999
 C        11.051999       -3.545001        4.924999
 C        11.051999       -2.127002        4.924999
 C       -10.014001       -1.418003        4.924999
 C        -7.558001       -4.254000        4.924999
 C        -8.786001       -3.545001        4.924999
 C        -8.786001       -2.127002        4.924999
 C        -7.558001       -1.418003        4.924999
 C        -5.102001       -4.254000        4.924999
 C        -6.330001       -3.545001        4.924999
 C        -6.330001       -2.127002        4.924999
 C        -5.102001       -1.418003        4.924999
 C        -2.646001       -4.254000        4.924999
 C        -3.874001       -3.545001        4.924999
 C        -3.874001       -2.127002        4.924999
 C        -2.646001       -1.418003        4.924999
 C         0.000000        1.417999        8.275000
 C        -1.228000        2.127000        8.275000
 C        -1.228000        3.545000        8.275000
 C         0.000000        4.254001        8.275000
 C         2.456000        1.417999        8.275000
 C         1.228000        2.127000        8.275000
 C         1.228000        3.545000        8.275000
 C         2.456000        4.254001        8.275000
 C         4.912000        1.417999        8.275000
 C         3.684000        2.127000        8.275000
 C         3.684000        3.545000        8.275000
 C         4.912000        4.254001        8.275000
 C         7.367999        1.417999        8.275000
 C         6.140000        2.127000        8.275000
 C         6.140000        3.545000        8.275000
 C         7.367999        4.254001        8.275000
 C         9.824000        1.417999        8.275000
 C         8.596000        2.127000        8.275000
 C         8.596000        3.545000        8.275000
 C         9.824000        4.254001        8.275000
 C       -10.014001        1.417999        8.275000
 C        11.051999        2.127000        8.275000
 C        11.051999        3.545000        8.275000
 C       -10.014001        4.254001        8.275000
 C        -7.558001        1.417999        8.275000
 C        -8.786001        2.127000        8.275000
 C        -8.786001        3.545000        8.275000
 C        -7.558001        4.254001        8.275000
 C        -5.102001        1.417999        8.275000
 C        -6.330001        2.127000        8.275000
 C        -6.330001        3.545000        8.275000
 C        -5.102001        4.254001        8.275000
 C        -2.646001        1.417999        8.275000
 C        -3.874001        2.127000        8.275000
 C        -3.874001        3.545000        8.275000
 C        -2.646001        4.254001        8.275000
 C         0.000000        5.672000        8.275000
 C        -1.228000        6.381000        8.275000
 C        -1.228000        7.799001        8.275000
 C         0.000000        8.508000        8.275000
 C         2.456000        5.672000        8.275000
 C         1.228000        6.381000        8.275000
 C         1.228000        7.799001        8.275000
 C         2.456000        8.508000        8.275000
 C         4.912000        5.672000        8.275000
 C         3.684000        6.381000        8.275000
 C         3.684000        7.799001        8.275000
 C         4.912000        8.508000        8.275000
 C         7.367999        5.672000        8.275000
 C         6.140000        6.381000        8.275000
 C         6.140000        7.799001        8.275000
 C         7.367999        8.508000        8.275000
 C         9.824000        5.672000        8.275000
 C         8.596000        6.381000        8.275000
 C         8.596000        7.799001        8.275000
 C         9.824000        8.508000        8.275000
 C       -10.014001        5.672000        8.275000
 C        11.051999        6.381000        8.275000
 C        11.051999        7.799001        8.275000
 C       -10.014001        8.508000        8.275000
 C        -7.558001        5.672000        8.275000
 C        -8.786001        6.381000        8.275000
 C        -8.786001        7.799001        8.275000
 C        -7.558001        8.508000        8.275000
 C        -5.102001        5.672000        8.275000
 C        -6.330001        6.381000        8.275000
 C        -6.330001        7.799001        8.275000
 C        -5.102001        8.508000        8.275000
 C        -2.646001        5.672000        8.275000
 C        -3.874001        6.381000        8.275000
 C        -3.874001        7.799001        8.275000
 C        -2.646001        8.508000        8.275000
 C         0.000000        9.926000        8.275000
 C        -1.228000       10.634999        8.275000
 C        -1.228000       -9.217001        8.275000
 C         0.000000       -8.508001        8.275000
 C         2.456000        9.926000        8.275000
 C         1.228000       10.634999        8.275000
 C         1.228000       -9.217001        8.275000
 C         2.456000       -8.508001        8.275000
 C         4.912000        9.926000        8.275000
 C         3.684000       10.634999        8.275000
 C         3.684000       -9.217001        8.275000
 C         4.912000       -8.508001        8.275000
 C         7.367999        9.926000        8.275000
 C         6.140000       10.634999        8.275000
 C         6.140000       -9.217001        8.275000
 C         7.367999       -8.508001        8.275000
 C         9.824000        9.926000        8.275000
 C         8.596000       10.634999        8.275000
 C         8.596000       -9.217001        8.275000
 C         9.824000       -8.508001        8.275000
 C       -10.014001        9.926000        8.275000
 C        11.051999       10.634999        8.275000
 C        11.051999       -9.217001        8.275000
 C       -10.014001       -8.508001        8.275000
 C        -7.558001        9.926000        8.275000
 C        -8.786001       10.634999        8.275000
 C        -8.786001       -9.217001        8.275000
 C        -7.558001       -8.508001        8.275000
 C        -5.102001        9.926000        8.275000
 C        -6.330001       10.634999        8.275000
 C        -6.330001       -9.217001        8.275000
 C        -5.102001       -8.508001        8.275000
 C        -2.646001        9.926000        8.275000
 C        -3.874001       10.634999        8.275000
 C        -3.874001       -9.217001        8.275000
 C        -2.646001       -8.508001        8.275000
 C         0.000000       -7.090000        8.275000
 C        -1.228000       -6.381001        8.275000
 C        -1.228000       -4.963002        8.275000
 C         0.000000       -4.254000        8.275000
 C         2.456000       -7.090000        8.275000
 C         1.228000       -6.381001        8.275000
 C         1.228000       -4.963002        8.275000
 C         2.456000       -4.254000        8.275000
 C         4.912000       -7.090000        8.275000
 C         3.684000       -6.381001        8.275000
 C         3.684000       -4.963002        8.275000
 C         4.912000       -4.254000        8.275000
 C         7.367999       -7.090000        8.275000
 C         6.140000       -6.381001        8.275000
 C         6.140000       -4.963002        8.275000
 C         7.367999       -4.254000        8.275000
 C         9.824000       -7.090000        8.275000
 C         8.596000       -6.381001        8.275000
 C         8.596000       -4.963002        8.275000
 C         9.824000       -4.254000        8.275000
 C       -10.014001       -7.090000        8.275000
 C        11.051999       -6.381001        8.275000
 C        11.051999       -4.963002        8.275000
 C       -10.014001       -4.254000        8.275000
 C        -7.558001       -7.090000        8.275000
 C        -8.786001       -6.381001        8.275000
 C        -8.786001       -4.963002        8.275000
 C        -7.558001       -4.254000        8.275000
 C        -5.102001       -7.090000        8.275000
 C        -6.330001       -6.381001        8.275000
 C        -6.330001       -4.963002        8.275000
 C        -5.102001       -4.254000        8.275000
 C        -2.646001       -7.090000        8.275000
 C        -3.874001       -6.381001        8.275000
 C        -3.874001       -4.963002        8.275000
 C        -2.646001       -4.254000        8.275000
 C         0.000000       -2.836001        8.275000
 C        -1.228000       -2.127002        8.275000
 C        -1.228000       -0.709001        8.275000
 C         0.000000       -0.000002        8.275000
 C         2.456000       -2.836001        8.275000
 C         1.228000       -2.127002        8.275000
 C         1.228000       -0.709001        8.275000
 C         2.456000       -0.000002        8.275000
 C         4.912000       -2.836001        8.275000
 C         3.684000       -2.127002        8.275000
 C         3.684000       -0.709001        8.275000
 C         4.912000       -0.000002        8.275000
 C         7.367999       -2.836001        8.275000
 C         6.140000       -2.127002        8.275000
 C         6.140000       -0.709001        8.275000
 C         7.367999       -0.000002        8.275000
 C         9.824000       -2.836001        8.275000
 C         8.596000       -2.127002        8.275000
 C         8.596000       -0.709001        8.275000
 C         9.824000       -0.000002        8.275000
 C       -10.014001       -2.836001        8.275000
 C        11.051999       -2.127002        8.275000
 C        11.051999       -0.709001        8.275000
 C       -10.014001       -0.000002        8.275000
 C        -7.558001       -2.836001        8.275000
 C        -8.786001       -2.127002        8.275000
 C        -8.786001       -0.709001        8.275000
 C        -7.558001       -0.000002        8.275000
 C        -5.102001       -2.836001        8.275000
 C        -6.330001       -2.127002        8.275000
 C        -6.330001       -0.709001        8.275000
 C        -5.102001       -0.000002        8.275000
 C        -2.646001       -2.836001        8.275000
 C        -3.874001       -2.127002        8.275000
 C        -3.874001       -0.709001        8.275000
 C        -2.646001       -0.000002        8.275000
